<?xml version="1.0"?>

<!-- generated on Mon Aug 20 10:52:06 2012 by SUMO duarouter Version 0.15.0
<?xml version="1.0" encoding="UTF-8"?>

<configuration xmlns:xsi="http://www.w3.org/2001/XMLSchema-instance" xsi:noNamespaceSchemaLocation="http://sumo.sf.net/xsd/duarouterConfiguration.xsd">

    <input>
        <net-file value="/home/gauss/artavares/Dropbox/UFRGS/ti/trafficNets/sumo/grid6x6/net.net.xml"/>
        <trip-files value="trips.trips.xml"/>
    </input>

    <output>
        <output-file value="/home/gauss/artavares/workspace/vehicleTyper/trunk/test/input/input.rou.xml"/>
    </output>

</configuration>
-->

<routes xmlns:xsi="http://www.w3.org/2001/XMLSchema-instance" xsi:noNamespaceSchemaLocation="http://sumo.sf.net/xsd/routes_file.xsd">
    <vehicle id="t0" depart="0.00">
        <route edges="A2-A3 A3-B3 B3-C3 C3-D3 D3-E3 E3-F3 F3-F2 F2-F1 F1-E1 E1-E2"/>
    </vehicle>
    <vehicle id="t1" depart="1.00">
        <route edges="A4-A5 A5-B5 B5-B4 B4-B3"/>
    </vehicle>
    <vehicle id="t2" depart="2.00">
        <route edges="F4-F3 F3-F2 F2-E2 E2-E3 E3-E4 E4-D4 D4-C4 C4-B4 B4-B3 B3-C3"/>
    </vehicle>
    <vehicle id="t3" depart="3.00">
        <route edges="A1-A2 A2-A3 A3-B3 B3-C3 C3-C4 C4-C5 C5-C6 C6-D6"/>
    </vehicle>
    <vehicle id="t4" depart="4.00">
        <route edges="D5-E5 E5-F5 F5-F4 F4-F3 F3-F2 F2-E2 E2-E3"/>
    </vehicle>
    <vehicle id="t5" depart="5.00">
        <route edges="D6-E6 E6-F6 F6-F5 F5-F4 F4-E4 E4-D4 D4-C4 C4-B4 B4-A4 A4-A5"/>
    </vehicle>
    <vehicle id="t6" depart="6.00">
        <route edges="F4-E4 E4-D4 D4-D3 D3-E3 E3-F3 F3-F2 F2-E2"/>
    </vehicle>
    <vehicle id="t7" depart="7.00">
        <route edges="C5-C6 C6-D6 D6-D5 D5-D4 D4-C4 C4-C5"/>
    </vehicle>
    <vehicle id="t8" depart="8.00">
        <route edges="E2-D2 D2-C2 C2-C3 C3-D3 D3-E3 E3-E4 E4-E5"/>
    </vehicle>
    <vehicle id="t9" depart="9.00">
        <route edges="C1-B1 B1-A1 A1-A2 A2-A3 A3-B3 B3-C3"/>
    </vehicle>
    <vehicle id="t10" depart="10.00">
        <route edges="D5-D4 D4-D3 D3-E3 E3-E4"/>
    </vehicle>
    <vehicle id="t11" depart="11.00">
        <route edges="C3-C4 C4-B4 B4-B3 B3-C3 C3-D3 D3-E3 E3-F3 F3-F2 F2-F1"/>
    </vehicle>
    <vehicle id="t12" depart="12.00">
        <route edges="A5-B5 B5-B4 B4-B3 B3-B2 B2-B1"/>
    </vehicle>
    <vehicle id="t13" depart="13.00">
        <route edges="C5-C6 C6-D6 D6-D5 D5-E5 E5-F5 F5-F4"/>
    </vehicle>
    <vehicle id="t14" depart="14.00">
        <route edges="B2-B1 B1-A1 A1-A2 A2-A3 A3-B3 B3-C3 C3-D3 D3-E3 E3-E4 E4-D4 D4-C4"/>
    </vehicle>
    <vehicle id="t15" depart="15.00">
        <route edges="E2-D2"/>
    </vehicle>
    <vehicle id="t16" depart="16.00">
        <route edges="E3-F3"/>
    </vehicle>
    <vehicle id="t17" depart="17.00">
        <route edges="E6-F6 F6-F5 F5-F4 F4-F3 F3-F2"/>
    </vehicle>
    <vehicle id="t18" depart="18.00">
        <route edges="F4-F3 F3-F2 F2-E2 E2-E3 E3-E4 E4-D4 D4-C4 C4-C5 C5-C6"/>
    </vehicle>
    <vehicle id="t19" depart="19.00">
        <route edges="C5-C6 C6-D6 D6-D5 D5-D4 D4-C4 C4-B4 B4-B3"/>
    </vehicle>
    <vehicle id="t20" depart="20.00">
        <route edges="B4-B3 B3-C3 C3-D3 D3-E3 E3-F3"/>
    </vehicle>
    <vehicle id="t21" depart="21.00">
        <route edges="D1-C1 C1-C2 C2-C3 C3-D3 D3-E3 E3-E4 E4-E5 E5-F5 F5-F4 F4-E4"/>
    </vehicle>
    <vehicle id="t22" depart="22.00">
        <route edges="F3-F2 F2-E2 E2-E3 E3-E4 E4-E5"/>
    </vehicle>
    <vehicle id="t23" depart="23.00">
        <route edges="C2-B2 B2-A2 A2-A3 A3-B3 B3-C3 C3-D3 D3-E3 E3-E4 E4-E5 E5-F5 F5-F4"/>
    </vehicle>
    <vehicle id="t24" depart="24.00">
        <route edges="D4-D3 D3-E3 E3-E4 E4-D4 D4-C4 C4-B4 B4-A4 A4-A5 A5-B5"/>
    </vehicle>
    <vehicle id="t25" depart="25.00">
        <route edges="C1-C2 C2-C3 C3-C4 C4-B4 B4-B3"/>
    </vehicle>
    <vehicle id="t26" depart="26.00">
        <route edges="E2-D2 D2-C2 C2-C3 C3-D3 D3-E3 E3-F3 F3-F2 F2-F1"/>
    </vehicle>
    <vehicle id="t27" depart="27.00">
        <route edges="E4-E5 E5-F5 F5-F4 F4-E4 E4-D4 D4-C4 C4-B4 B4-B3"/>
    </vehicle>
    <vehicle id="t28" depart="28.00">
        <route edges="D4-C4 C4-B4 B4-B3 B3-C3 C3-D3 D3-D2 D2-C2 C2-C3"/>
    </vehicle>
    <vehicle id="t29" depart="29.00">
        <route edges="E2-D2 D2-C2 C2-C3 C3-C4 C4-B4 B4-A4 A4-A5 A5-A6 A6-B6 B6-C6"/>
    </vehicle>
    <vehicle id="t30" depart="30.00">
        <route edges="F4-F3 F3-F2 F2-E2 E2-E3 E3-E4 E4-D4 D4-C4 C4-C5"/>
    </vehicle>
    <vehicle id="t31" depart="31.00">
        <route edges="E4-D4 D4-C4 C4-C5 C5-C6 C6-D6"/>
    </vehicle>
    <vehicle id="t32" depart="32.00">
        <route edges="B5-C5 C5-D5 D5-D4 D4-D3 D3-E3 E3-E4 E4-E5"/>
    </vehicle>
    <vehicle id="t33" depart="33.00">
        <route edges="A3-A4 A4-A5 A5-B5 B5-B4 B4-B3 B3-B2"/>
    </vehicle>
    <vehicle id="t34" depart="34.00">
        <route edges="E2-D2 D2-C2 C2-C3 C3-D3 D3-E3 E3-E4 E4-E5 E5-E6 E6-F6"/>
    </vehicle>
    <vehicle id="t35" depart="35.00">
        <route edges="B6-B5 B5-B4 B4-A4 A4-A5 A5-A6"/>
    </vehicle>
    <vehicle id="t36" depart="36.00">
        <route edges="C5-D5 D5-D4 D4-D3 D3-E3 E3-F3"/>
    </vehicle>
    <vehicle id="t37" depart="37.00">
        <route edges="F4-F3 F3-F2 F2-E2 E2-E3 E3-E4 E4-D4 D4-C4"/>
    </vehicle>
    <vehicle id="t38" depart="38.00">
        <route edges="A1-A2 A2-A3 A3-A4 A4-A5 A5-B5 B5-C5"/>
    </vehicle>
    <vehicle id="t39" depart="39.00">
        <route edges="B4-A4 A4-A5 A5-B5 B5-B4 B4-B3 B3-C3 C3-D3 D3-D2 D2-C2"/>
    </vehicle>
    <vehicle id="t40" depart="40.00">
        <route edges="F3-F2 F2-E2 E2-E3 E3-E4 E4-D4 D4-C4 C4-B4 B4-B3 B3-B2"/>
    </vehicle>
    <vehicle id="t41" depart="41.00">
        <route edges="A4-A5 A5-B5 B5-B4 B4-B3"/>
    </vehicle>
    <vehicle id="t42" depart="42.00">
        <route edges="B5-C5 C5-D5 D5-E5 E5-F5 F5-F4 F4-E4"/>
    </vehicle>
    <vehicle id="t43" depart="43.00">
        <route edges="A2-A3 A3-B3 B3-B2 B2-A2"/>
    </vehicle>
    <vehicle id="t44" depart="44.00">
        <route edges="C4-B4 B4-B3 B3-C3 C3-D3 D3-E3 E3-F3 F3-F2"/>
    </vehicle>
    <vehicle id="t45" depart="45.00">
        <route edges="D2-C2 C2-B2 B2-A2"/>
    </vehicle>
    <vehicle id="t46" depart="46.00">
        <route edges="C6-D6 D6-D5 D5-D4 D4-D3"/>
    </vehicle>
    <vehicle id="t47" depart="47.00">
        <route edges="E5-E6 E6-F6 F6-F5 F5-F4 F4-F3 F3-F2"/>
    </vehicle>
    <vehicle id="t48" depart="48.00">
        <route edges="E1-D1 D1-C1 C1-C2 C2-C3 C3-D3 D3-E3 E3-F3"/>
    </vehicle>
    <vehicle id="t49" depart="49.00">
        <route edges="A2-A3 A3-B3 B3-C3 C3-D3 D3-E3 E3-E4 E4-E5 E5-F5"/>
    </vehicle>
    <vehicle id="t50" depart="50.00">
        <route edges="F2-E2 E2-D2 D2-C2 C2-B2 B2-A2 A2-A3 A3-A4"/>
    </vehicle>
    <vehicle id="t51" depart="51.00">
        <route edges="F1-E1 E1-E2 E2-E3 E3-E4 E4-D4 D4-C4 C4-C5 C5-D5 D5-E5"/>
    </vehicle>
    <vehicle id="t52" depart="52.00">
        <route edges="D3-D2 D2-C2 C2-C3 C3-D3 D3-E3 E3-E4 E4-D4 D4-C4"/>
    </vehicle>
    <vehicle id="t53" depart="53.00">
        <route edges="C5-D5 D5-E5 E5-F5 F5-F4"/>
    </vehicle>
    <vehicle id="t54" depart="54.00">
        <route edges="B2-B1 B1-A1 A1-A2 A2-A3 A3-B3 B3-C3 C3-D3 D3-D2 D2-D1 D1-C1"/>
    </vehicle>
    <vehicle id="t55" depart="55.00">
        <route edges="A3-B3 B3-B2 B2-B1 B1-A1"/>
    </vehicle>
    <vehicle id="t56" depart="56.00">
        <route edges="E2-E3 E3-E4 E4-D4 D4-C4 C4-C5 C5-D5"/>
    </vehicle>
    <vehicle id="t57" depart="57.00">
        <route edges="E2-D2 D2-C2 C2-C3 C3-D3 D3-E3 E3-F3 F3-F2"/>
    </vehicle>
    <vehicle id="t58" depart="58.00">
        <route edges="A3-B3 B3-C3 C3-D3 D3-D2 D2-D1 D1-C1 C1-C2"/>
    </vehicle>
    <vehicle id="t59" depart="59.00">
        <route edges="E5-F5 F5-F4 F4-E4 E4-D4 D4-D3 D3-D2 D2-D1 D1-C1"/>
    </vehicle>
    <vehicle id="t60" depart="60.00">
        <route edges="A6-B6 B6-B5 B5-C5 C5-D5"/>
    </vehicle>
    <vehicle id="t61" depart="61.00">
        <route edges="C6-D6 D6-D5 D5-D4 D4-C4 C4-B4 B4-B3 B3-B2 B2-B1"/>
    </vehicle>
    <vehicle id="t62" depart="62.00">
        <route edges="A1-A2 A2-A3 A3-A4 A4-A5 A5-A6 A6-B6 B6-B5"/>
    </vehicle>
    <vehicle id="t63" depart="63.00">
        <route edges="D6-D5 D5-D4 D4-D3 D3-E3 E3-F3 F3-F2 F2-F1 F1-E1 E1-D1"/>
    </vehicle>
    <vehicle id="t64" depart="64.00">
        <route edges="E6-F6 F6-F5 F5-F4 F4-E4 E4-D4 D4-C4 C4-B4 B4-B3 B3-B2 B2-A2 A2-A3"/>
    </vehicle>
    <vehicle id="t65" depart="65.00">
        <route edges="E5-E6 E6-F6 F6-F5 F5-F4 F4-E4 E4-D4 D4-C4"/>
    </vehicle>
    <vehicle id="t66" depart="66.00">
        <route edges="E6-F6 F6-F5 F5-F4 F4-F3 F3-F2 F2-F1"/>
    </vehicle>
    <vehicle id="t67" depart="67.00">
        <route edges="D2-C2 C2-B2 B2-A2 A2-A3 A3-B3"/>
    </vehicle>
    <vehicle id="t68" depart="68.00">
        <route edges="A4-A5 A5-B5 B5-B4 B4-B3 B3-B2 B2-A2 A2-A3"/>
    </vehicle>
    <vehicle id="t69" depart="69.00">
        <route edges="D4-D3 D3-E3"/>
    </vehicle>
    <vehicle id="t70" depart="70.00">
        <route edges="D5-D4 D4-C4 C4-B4 B4-A4 A4-A5 A5-B5 B5-B4"/>
    </vehicle>
    <vehicle id="t71" depart="71.00">
        <route edges="D2-C2 C2-C3 C3-D3 D3-E3 E3-F3 F3-F2 F2-E2"/>
    </vehicle>
    <vehicle id="t72" depart="72.00">
        <route edges="F2-F1 F1-E1 E1-E2 E2-D2 D2-C2 C2-C3"/>
    </vehicle>
    <vehicle id="t73" depart="73.00">
        <route edges="F6-F5 F5-F4 F4-E4 E4-D4 D4-C4 C4-B4 B4-B3 B3-B2"/>
    </vehicle>
    <vehicle id="t74" depart="74.00">
        <route edges="D6-D5 D5-D4 D4-C4 C4-B4 B4-B3 B3-B2 B2-A2 A2-A3 A3-B3"/>
    </vehicle>
    <vehicle id="t75" depart="75.00">
        <route edges="D6-D5 D5-D4 D4-C4 C4-B4 B4-B3 B3-B2"/>
    </vehicle>
    <vehicle id="t76" depart="76.00">
        <route edges="C2-B2 B2-A2 A2-A3 A3-B3 B3-C3 C3-D3 D3-E3 E3-F3 F3-F2"/>
    </vehicle>
    <vehicle id="t77" depart="77.00">
        <route edges="E5-F5 F5-F4 F4-E4 E4-E5 E5-E6 E6-F6"/>
    </vehicle>
    <vehicle id="t78" depart="78.00">
        <route edges="A1-A2 A2-A3 A3-B3 B3-C3 C3-D3 D3-E3 E3-E4 E4-E5 E5-F5 F5-F4 F4-E4"/>
    </vehicle>
    <vehicle id="t79" depart="79.00">
        <route edges="C2-C3 C3-C4 C4-B4 B4-A4 A4-A5 A5-A6 A6-B6"/>
    </vehicle>
    <vehicle id="t80" depart="80.00">
        <route edges="E4-D4 D4-D3 D3-D2 D2-D1 D1-C1"/>
    </vehicle>
    <vehicle id="t81" depart="81.00">
        <route edges="D3-E3 E3-F3 F3-F2 F2-F1 F1-E1 E1-D1"/>
    </vehicle>
    <vehicle id="t82" depart="82.00">
        <route edges="D3-D2 D2-C2 C2-C3 C3-D3 D3-E3 E3-E4 E4-E5 E5-F5 F5-F4"/>
    </vehicle>
    <vehicle id="t83" depart="83.00">
        <route edges="D3-D2 D2-C2 C2-B2 B2-A2 A2-A3"/>
    </vehicle>
    <vehicle id="t84" depart="84.00">
        <route edges="A3-A4 A4-A5 A5-B5 B5-C5 C5-C6 C6-D6"/>
    </vehicle>
    <vehicle id="t85" depart="85.00">
        <route edges="F4-E4 E4-D4 D4-C4 C4-C5 C5-D5 D5-D4"/>
    </vehicle>
    <vehicle id="t86" depart="86.00">
        <route edges="E6-F6 F6-F5 F5-F4 F4-E4 E4-D4 D4-C4 C4-B4 B4-B3 B3-B2 B2-A2 A2-A3 A3-B3"/>
    </vehicle>
    <vehicle id="t87" depart="87.00">
        <route edges="C2-C3 C3-D3 D3-D2 D2-D1 D1-C1 C1-B1"/>
    </vehicle>
    <vehicle id="t88" depart="88.00">
        <route edges="A6-B6 B6-B5 B5-B4 B4-B3 B3-C3 C3-C4 C4-B4"/>
    </vehicle>
    <vehicle id="t89" depart="89.00">
        <route edges="A3-B3 B3-C3 C3-C4 C4-B4 B4-A4 A4-A5 A5-A6 A6-B6 B6-B5"/>
    </vehicle>
    <vehicle id="t90" depart="90.00">
        <route edges="F2-E2 E2-D2 D2-D1 D1-C1 C1-B1"/>
    </vehicle>
    <vehicle id="t91" depart="91.00">
        <route edges="E4-D4 D4-C4"/>
    </vehicle>
    <vehicle id="t92" depart="92.00">
        <route edges="C1-B1 B1-A1 A1-A2 A2-A3 A3-B3 B3-C3 C3-D3 D3-E3 E3-F3 F3-F2 F2-E2"/>
    </vehicle>
    <vehicle id="t93" depart="93.00">
        <route edges="D4-C4 C4-B4 B4-A4 A4-A5 A5-A6 A6-B6 B6-B5"/>
    </vehicle>
    <vehicle id="t94" depart="94.00">
        <route edges="A5-B5 B5-C5 C5-D5 D5-D4 D4-D3 D3-E3 E3-F3 F3-F2 F2-E2 E2-D2"/>
    </vehicle>
    <vehicle id="t95" depart="95.00">
        <route edges="A3-B3 B3-B2 B2-A2 A2-A3"/>
    </vehicle>
    <vehicle id="t96" depart="96.00">
        <route edges="E5-F5 F5-F4 F4-E4 E4-D4 D4-C4 C4-B4 B4-B3 B3-B2 B2-A2 A2-A3 A3-B3"/>
    </vehicle>
    <vehicle id="t97" depart="97.00">
        <route edges="E5-E6 E6-F6 F6-F5 F5-F4 F4-E4 E4-D4 D4-C4 C4-B4 B4-A4 A4-A5 A5-B5 B5-C5"/>
    </vehicle>
    <vehicle id="t98" depart="98.00">
        <route edges="D3-E3 E3-E4 E4-D4 D4-C4"/>
    </vehicle>
    <vehicle id="t99" depart="99.00">
        <route edges="F2-E2 E2-E3 E3-E4 E4-D4 D4-C4 C4-C5"/>
    </vehicle>
    <vehicle id="t100" depart="100.00">
        <route edges="A4-A5 A5-B5 B5-B4 B4-B3 B3-B2 B2-A2 A2-A3 A3-B3"/>
    </vehicle>
    <vehicle id="t101" depart="101.00">
        <route edges="D4-D3 D3-D2 D2-C2 C2-B2"/>
    </vehicle>
    <vehicle id="t102" depart="102.00">
        <route edges="F6-F5 F5-F4 F4-E4 E4-D4 D4-C4 C4-B4 B4-B3 B3-B2"/>
    </vehicle>
    <vehicle id="t103" depart="103.00">
        <route edges="E4-D4 D4-D3 D3-E3 E3-F3 F3-F2 F2-E2"/>
    </vehicle>
    <vehicle id="t104" depart="104.00">
        <route edges="B4-A4 A4-A5 A5-B5 B5-B4 B4-B3 B3-C3 C3-C4"/>
    </vehicle>
    <vehicle id="t105" depart="105.00">
        <route edges="F4-E4 E4-D4 D4-C4 C4-B4 B4-A4 A4-A5 A5-A6 A6-B6 B6-C6"/>
    </vehicle>
    <vehicle id="t106" depart="106.00">
        <route edges="A1-A2 A2-A3 A3-B3 B3-C3 C3-D3 D3-E3 E3-F3 F3-F2"/>
    </vehicle>
    <vehicle id="t107" depart="107.00">
        <route edges="C6-D6 D6-D5 D5-D4 D4-C4 C4-B4"/>
    </vehicle>
    <vehicle id="t108" depart="108.00">
        <route edges="C2-B2 B2-A2 A2-A3 A3-B3 B3-C3 C3-D3 D3-E3 E3-F3 F3-F2 F2-E2 E2-E3"/>
    </vehicle>
    <vehicle id="t109" depart="109.00">
        <route edges="D5-D4 D4-C4 C4-C5"/>
    </vehicle>
    <vehicle id="t110" depart="110.00">
        <route edges="B3-C3 C3-D3 D3-E3 E3-F3 F3-F2 F2-E2 E2-E3"/>
    </vehicle>
    <vehicle id="t111" depart="111.00">
        <route edges="F6-F5 F5-F4 F4-E4 E4-D4 D4-D3 D3-E3 E3-F3"/>
    </vehicle>
    <vehicle id="t112" depart="112.00">
        <route edges="B1-A1 A1-A2 A2-A3 A3-B3 B3-C3 C3-C4 C4-B4 B4-B3"/>
    </vehicle>
    <vehicle id="t113" depart="113.00">
        <route edges="C5-C6 C6-D6 D6-D5 D5-D4 D4-D3 D3-D2 D2-D1 D1-C1"/>
    </vehicle>
    <vehicle id="t114" depart="114.00">
        <route edges="C6-D6"/>
    </vehicle>
    <vehicle id="t115" depart="115.00">
        <route edges="D3-E3 E3-E4 E4-D4 D4-D3 D3-D2 D2-C2 C2-C3"/>
    </vehicle>
    <vehicle id="t116" depart="116.00">
        <route edges="A1-A2 A2-A3 A3-B3 B3-C3 C3-D3 D3-D2 D2-D1"/>
    </vehicle>
    <vehicle id="t117" depart="117.00">
        <route edges="F4-F3 F3-F2 F2-E2 E2-E3 E3-E4 E4-D4 D4-C4 C4-C5 C5-C6 C6-D6 D6-E6"/>
    </vehicle>
    <vehicle id="t118" depart="118.00">
        <route edges="A2-A3"/>
    </vehicle>
    <vehicle id="t119" depart="119.00">
        <route edges="B1-A1 A1-A2 A2-A3 A3-B3 B3-C3 C3-C4 C4-C5 C5-C6 C6-D6"/>
    </vehicle>
    <vehicle id="t120" depart="120.00">
        <route edges="C3-C4 C4-B4 B4-B3 B3-B2 B2-B1 B1-A1"/>
    </vehicle>
    <vehicle id="t121" depart="121.00">
        <route edges="E4-E5 E5-F5 F5-F4 F4-E4 E4-D4 D4-C4 C4-B4 B4-B3 B3-C3 C3-C4"/>
    </vehicle>
    <vehicle id="t122" depart="122.00">
        <route edges="E2-E3 E3-E4 E4-D4 D4-D3 D3-D2 D2-D1 D1-C1 C1-B1"/>
    </vehicle>
    <vehicle id="t123" depart="123.00">
        <route edges="B2-B1 B1-A1 A1-A2 A2-A3 A3-B3 B3-C3 C3-D3 D3-E3 E3-E4 E4-D4"/>
    </vehicle>
    <vehicle id="t124" depart="124.00">
        <route edges="A1-A2 A2-A3 A3-B3 B3-C3 C3-C4 C4-B4 B4-B3"/>
    </vehicle>
    <vehicle id="t125" depart="125.00">
        <route edges="C5-C6 C6-D6 D6-D5 D5-D4 D4-C4 C4-B4 B4-A4 A4-A5 A5-B5"/>
    </vehicle>
    <vehicle id="t126" depart="126.00">
        <route edges="E3-E4 E4-D4 D4-C4 C4-B4 B4-B3 B3-B2 B2-A2 A2-A3"/>
    </vehicle>
    <vehicle id="t127" depart="127.00">
        <route edges="E2-E3 E3-E4 E4-D4 D4-C4 C4-B4 B4-B3 B3-C3 C3-C4"/>
    </vehicle>
    <vehicle id="t128" depart="128.00">
        <route edges="E5-E6 E6-F6 F6-F5 F5-F4 F4-E4 E4-D4 D4-C4 C4-B4 B4-B3 B3-B2 B2-B1 B1-A1"/>
    </vehicle>
    <vehicle id="t129" depart="129.00">
        <route edges="E3-E4 E4-D4 D4-C4 C4-B4 B4-A4 A4-A5 A5-B5 B5-B4"/>
    </vehicle>
    <vehicle id="t130" depart="130.00">
        <route edges="E5-F5 F5-F4 F4-F3 F3-F2"/>
    </vehicle>
    <vehicle id="t131" depart="131.00">
        <route edges="A5-B5 B5-C5 C5-D5 D5-D4 D4-C4"/>
    </vehicle>
    <vehicle id="t132" depart="132.00">
        <route edges="D6-D5 D5-D4 D4-D3 D3-E3 E3-F3 F3-F2 F2-E2 E2-D2"/>
    </vehicle>
    <vehicle id="t133" depart="133.00">
        <route edges="C6-D6 D6-D5 D5-D4 D4-D3 D3-E3 E3-F3 F3-F2 F2-E2"/>
    </vehicle>
    <vehicle id="t134" depart="134.00">
        <route edges="B3-B2 B2-A2 A2-A3 A3-B3 B3-C3 C3-C4 C4-B4 B4-A4"/>
    </vehicle>
    <vehicle id="t135" depart="135.00">
        <route edges="B5-C5 C5-D5 D5-D4 D4-D3 D3-D2 D2-D1 D1-C1"/>
    </vehicle>
    <vehicle id="t136" depart="136.00">
        <route edges="C1-B1 B1-A1 A1-A2 A2-A3 A3-B3 B3-C3 C3-D3 D3-E3"/>
    </vehicle>
    <vehicle id="t137" depart="137.00">
        <route edges="C6-D6 D6-D5 D5-D4 D4-D3 D3-E3 E3-F3 F3-F2 F2-F1 F1-E1 E1-D1"/>
    </vehicle>
    <vehicle id="t138" depart="138.00">
        <route edges="D2-C2 C2-C3 C3-C4 C4-C5 C5-D5 D5-E5"/>
    </vehicle>
    <vehicle id="t139" depart="139.00">
        <route edges="C1-C2 C2-C3 C3-D3 D3-E3 E3-E4 E4-D4"/>
    </vehicle>
    <vehicle id="t140" depart="140.00">
        <route edges="C5-D5 D5-D4 D4-D3 D3-E3 E3-E4 E4-E5"/>
    </vehicle>
    <vehicle id="t141" depart="141.00">
        <route edges="D4-C4 C4-B4 B4-A4 A4-A5 A5-A6 A6-B6 B6-C6"/>
    </vehicle>
    <vehicle id="t142" depart="142.00">
        <route edges="D3-E3 E3-E4 E4-D4 D4-C4 C4-B4 B4-A4 A4-A5 A5-A6 A6-B6 B6-B5"/>
    </vehicle>
    <vehicle id="t143" depart="143.00">
        <route edges="A5-B5 B5-C5"/>
    </vehicle>
    <vehicle id="t144" depart="144.00">
        <route edges="B5-C5 C5-D5 D5-D4 D4-D3 D3-D2"/>
    </vehicle>
    <vehicle id="t145" depart="145.00">
        <route edges="E1-D1 D1-C1 C1-C2 C2-C3 C3-D3 D3-D2 D2-D1"/>
    </vehicle>
    <vehicle id="t146" depart="146.00">
        <route edges="B4-A4 A4-A5 A5-B5 B5-B4 B4-B3 B3-C3 C3-D3 D3-E3 E3-F3 F3-F2"/>
    </vehicle>
    <vehicle id="t147" depart="147.00">
        <route edges="D5-E5 E5-F5 F5-F4 F4-E4 E4-D4 D4-C4 C4-B4 B4-A4 A4-A5 A5-B5 B5-C5"/>
    </vehicle>
    <vehicle id="t148" depart="148.00">
        <route edges="D5-D4 D4-C4 C4-B4 B4-A4 A4-A5 A5-A6"/>
    </vehicle>
    <vehicle id="t149" depart="149.00">
        <route edges="E2-E3 E3-E4 E4-D4 D4-C4 C4-C5 C5-C6 C6-D6 D6-D5"/>
    </vehicle>
    <vehicle id="t150" depart="150.00">
        <route edges="F3-F2 F2-E2 E2-E3 E3-E4 E4-D4 D4-C4 C4-B4 B4-A4 A4-A5 A5-B5 B5-C5"/>
    </vehicle>
    <vehicle id="t151" depart="151.00">
        <route edges="A3-B3 B3-C3 C3-D3 D3-D2 D2-D1"/>
    </vehicle>
    <vehicle id="t152" depart="152.00">
        <route edges="A2-A3 A3-B3 B3-C3 C3-C4 C4-C5 C5-C6 C6-D6"/>
    </vehicle>
    <vehicle id="t153" depart="153.00">
        <route edges="E4-D4 D4-C4 C4-B4 B4-A4"/>
    </vehicle>
    <vehicle id="t154" depart="154.00">
        <route edges="D6-D5 D5-D4 D4-C4 C4-B4 B4-B3 B3-B2 B2-B1"/>
    </vehicle>
    <vehicle id="t155" depart="155.00">
        <route edges="D6-E6 E6-F6 F6-F5 F5-F4 F4-E4 E4-D4 D4-C4 C4-B4 B4-B3 B3-B2 B2-B1"/>
    </vehicle>
    <vehicle id="t156" depart="156.00">
        <route edges="A1-A2 A2-A3 A3-A4 A4-A5"/>
    </vehicle>
    <vehicle id="t157" depart="157.00">
        <route edges="E1-E2 E2-E3 E3-E4 E4-E5 E5-F5 F5-F4 F4-E4"/>
    </vehicle>
    <vehicle id="t158" depart="158.00">
        <route edges="F5-F4 F4-E4 E4-D4 D4-C4 C4-B4 B4-A4"/>
    </vehicle>
    <vehicle id="t159" depart="159.00">
        <route edges="B6-B5 B5-B4 B4-A4 A4-A5 A5-A6 A6-B6"/>
    </vehicle>
    <vehicle id="t160" depart="160.00">
        <route edges="D6-D5 D5-D4 D4-D3 D3-D2 D2-C2"/>
    </vehicle>
    <vehicle id="t161" depart="161.00">
        <route edges="E5-F5 F5-F4 F4-E4 E4-D4 D4-C4 C4-C5 C5-D5 D5-E5"/>
    </vehicle>
    <vehicle id="t162" depart="162.00">
        <route edges="B2-A2 A2-A3 A3-B3 B3-C3 C3-D3 D3-E3 E3-E4 E4-D4"/>
    </vehicle>
    <vehicle id="t163" depart="163.00">
        <route edges="D3-E3 E3-E4 E4-D4 D4-D3 D3-D2 D2-C2 C2-C3"/>
    </vehicle>
    <vehicle id="t164" depart="164.00">
        <route edges="F2-F1 F1-E1 E1-E2 E2-E3 E3-F3 F3-F2"/>
    </vehicle>
    <vehicle id="t165" depart="165.00">
        <route edges="E5-E6 E6-F6 F6-F5 F5-F4 F4-E4 E4-D4 D4-C4 C4-B4 B4-B3 B3-B2 B2-A2 A2-A3 A3-A4"/>
    </vehicle>
    <vehicle id="t166" depart="166.00">
        <route edges="D2-D1 D1-C1 C1-C2 C2-C3 C3-C4 C4-B4 B4-A4 A4-A5 A5-A6 A6-B6"/>
    </vehicle>
    <vehicle id="t167" depart="167.00">
        <route edges="C2-B2 B2-A2 A2-A3 A3-B3 B3-B2"/>
    </vehicle>
    <vehicle id="t168" depart="168.00">
        <route edges="B3-C3 C3-D3 D3-E3 E3-F3 F3-F2 F2-E2 E2-D2"/>
    </vehicle>
    <vehicle id="t169" depart="169.00">
        <route edges="C1-B1 B1-A1 A1-A2 A2-A3 A3-B3 B3-C3 C3-C4 C4-C5 C5-D5"/>
    </vehicle>
    <vehicle id="t170" depart="170.00">
        <route edges="C3-C4 C4-B4 B4-B3 B3-C3 C3-D3 D3-E3 E3-F3 F3-F2 F2-F1 F1-E1 E1-E2"/>
    </vehicle>
    <vehicle id="t171" depart="171.00">
        <route edges="A2-A3 A3-B3 B3-C3"/>
    </vehicle>
    <vehicle id="t172" depart="172.00">
        <route edges="F4-E4 E4-D4 D4-D3 D3-E3 E3-F3 F3-F2 F2-F1 F1-E1 E1-E2"/>
    </vehicle>
    <vehicle id="t173" depart="173.00">
        <route edges="E2-D2 D2-C2 C2-C3 C3-C4 C4-C5 C5-C6 C6-D6 D6-E6"/>
    </vehicle>
    <vehicle id="t174" depart="174.00">
        <route edges="D2-D1 D1-C1 C1-C2 C2-C3 C3-C4 C4-B4 B4-A4 A4-A5"/>
    </vehicle>
    <vehicle id="t175" depart="175.00">
        <route edges="D3-E3 E3-E4 E4-D4 D4-D3 D3-D2 D2-C2 C2-B2"/>
    </vehicle>
    <vehicle id="t176" depart="176.00">
        <route edges="D6-D5 D5-D4 D4-C4 C4-B4 B4-A4 A4-A5 A5-B5"/>
    </vehicle>
    <vehicle id="t177" depart="177.00">
        <route edges="C3-D3 D3-E3"/>
    </vehicle>
    <vehicle id="t178" depart="178.00">
        <route edges="D2-D1 D1-C1 C1-C2 C2-C3 C3-D3 D3-E3 E3-E4 E4-E5 E5-F5 F5-F4 F4-E4"/>
    </vehicle>
    <vehicle id="t179" depart="179.00">
        <route edges="C2-B2 B2-A2 A2-A3 A3-B3"/>
    </vehicle>
    <vehicle id="t180" depart="180.00">
        <route edges="C4-B4 B4-B3 B3-B2 B2-A2 A2-A3 A3-B3"/>
    </vehicle>
    <vehicle id="t181" depart="181.00">
        <route edges="A4-A5 A5-B5 B5-B4 B4-B3 B3-C3 C3-D3 D3-E3 E3-F3 F3-F2 F2-E2"/>
    </vehicle>
    <vehicle id="t182" depart="182.00">
        <route edges="C5-C6 C6-D6"/>
    </vehicle>
    <vehicle id="t183" depart="183.00">
        <route edges="C4-C5"/>
    </vehicle>
    <vehicle id="t184" depart="184.00">
        <route edges="E3-F3 F3-F2 F2-E2 E2-E3 E3-E4 E4-D4 D4-C4 C4-B4 B4-A4 A4-A5 A5-A6 A6-B6 B6-C6"/>
    </vehicle>
    <vehicle id="t185" depart="185.00">
        <route edges="D2-C2 C2-C3 C3-C4 C4-B4 B4-B3 B3-C3"/>
    </vehicle>
    <vehicle id="t186" depart="186.00">
        <route edges="C4-C5 C5-D5 D5-D4 D4-C4 C4-B4 B4-A4 A4-A5 A5-A6 A6-B6 B6-C6"/>
    </vehicle>
    <vehicle id="t187" depart="187.00">
        <route edges="F3-F2 F2-E2 E2-E3 E3-E4 E4-E5 E5-F5 F5-F4 F4-E4"/>
    </vehicle>
    <vehicle id="t188" depart="188.00">
        <route edges="F4-E4 E4-D4 D4-D3 D3-D2 D2-C2 C2-B2 B2-A2 A2-A3"/>
    </vehicle>
    <vehicle id="t189" depart="189.00">
        <route edges="D5-E5 E5-F5 F5-F4 F4-E4"/>
    </vehicle>
    <vehicle id="t190" depart="190.00">
        <route edges="E4-E5 E5-F5 F5-F4 F4-E4 E4-D4 D4-C4 C4-B4 B4-B3 B3-B2 B2-A2"/>
    </vehicle>
    <vehicle id="t191" depart="191.00">
        <route edges="A3-B3 B3-C3 C3-C4 C4-C5"/>
    </vehicle>
    <vehicle id="t192" depart="192.00">
        <route edges="D4-C4 C4-C5 C5-D5 D5-E5 E5-F5 F5-F4"/>
    </vehicle>
    <vehicle id="t193" depart="193.00">
        <route edges="D5-E5 E5-F5 F5-F4 F4-E4 E4-D4 D4-D3 D3-D2 D2-D1 D1-C1"/>
    </vehicle>
    <vehicle id="t194" depart="194.00">
        <route edges="C3-C4 C4-C5"/>
    </vehicle>
    <vehicle id="t195" depart="195.00">
        <route edges="E5-F5 F5-F4 F4-F3 F3-F2 F2-F1 F1-E1 E1-E2"/>
    </vehicle>
    <vehicle id="t196" depart="196.00">
        <route edges="E6-F6 F6-F5 F5-F4 F4-F3 F3-F2"/>
    </vehicle>
    <vehicle id="t197" depart="197.00">
        <route edges="C5-C6 C6-D6 D6-D5 D5-D4 D4-C4 C4-C5"/>
    </vehicle>
    <vehicle id="t198" depart="198.00">
        <route edges="E2-D2 D2-C2 C2-C3 C3-C4 C4-B4 B4-A4 A4-A5 A5-B5 B5-B4"/>
    </vehicle>
    <vehicle id="t199" depart="199.00">
        <route edges="C4-B4 B4-B3 B3-C3 C3-D3 D3-E3 E3-F3 F3-F2 F2-E2 E2-D2"/>
    </vehicle>
    <vehicle id="t200" depart="200.00">
        <route edges="A3-B3 B3-C3 C3-C4 C4-C5 C5-D5"/>
    </vehicle>
    <vehicle id="t201" depart="201.00">
        <route edges="D4-C4 C4-C5 C5-D5 D5-E5"/>
    </vehicle>
    <vehicle id="t202" depart="202.00">
        <route edges="B1-A1 A1-A2 A2-A3 A3-A4 A4-A5 A5-A6 A6-B6"/>
    </vehicle>
    <vehicle id="t203" depart="203.00">
        <route edges="F2-E2 E2-E3 E3-E4 E4-D4 D4-C4 C4-B4 B4-A4 A4-A5 A5-A6 A6-B6 B6-C6"/>
    </vehicle>
    <vehicle id="t204" depart="204.00">
        <route edges="E5-F5 F5-F4 F4-E4 E4-D4 D4-C4 C4-B4 B4-B3 B3-B2 B2-A2 A2-A3 A3-B3"/>
    </vehicle>
    <vehicle id="t205" depart="205.00">
        <route edges="C5-C6 C6-D6 D6-D5 D5-D4 D4-D3 D3-D2 D2-D1"/>
    </vehicle>
    <vehicle id="t206" depart="206.00">
        <route edges="E2-E3 E3-E4 E4-D4 D4-C4 C4-B4 B4-B3 B3-B2"/>
    </vehicle>
    <vehicle id="t207" depart="207.00">
        <route edges="A2-A3 A3-B3 B3-C3 C3-D3 D3-E3"/>
    </vehicle>
    <vehicle id="t208" depart="208.00">
        <route edges="F4-E4 E4-E5"/>
    </vehicle>
    <vehicle id="t209" depart="209.00">
        <route edges="E1-E2 E2-E3 E3-E4 E4-E5 E5-F5 F5-F4"/>
    </vehicle>
    <vehicle id="t210" depart="210.00">
        <route edges="A4-A5 A5-B5 B5-C5 C5-D5 D5-E5 E5-F5 F5-F4"/>
    </vehicle>
    <vehicle id="t211" depart="211.00">
        <route edges="D4-C4 C4-B4 B4-B3 B3-C3"/>
    </vehicle>
    <vehicle id="t212" depart="212.00">
        <route edges="E2-D2 D2-D1 D1-C1 C1-C2"/>
    </vehicle>
    <vehicle id="t213" depart="213.00">
        <route edges="E3-E4 E4-E5"/>
    </vehicle>
    <vehicle id="t214" depart="214.00">
        <route edges="D3-D2 D2-C2 C2-C3 C3-D3 D3-E3 E3-E4 E4-D4 D4-D3"/>
    </vehicle>
    <vehicle id="t215" depart="215.00">
        <route edges="E3-E4 E4-D4 D4-C4 C4-C5 C5-C6"/>
    </vehicle>
    <vehicle id="t216" depart="216.00">
        <route edges="F1-E1"/>
    </vehicle>
    <vehicle id="t217" depart="217.00">
        <route edges="A1-A2 A2-A3 A3-B3 B3-C3 C3-D3 D3-D2 D2-D1"/>
    </vehicle>
    <vehicle id="t218" depart="218.00">
        <route edges="D5-E5 E5-F5 F5-F4 F4-E4 E4-D4 D4-C4 C4-B4 B4-A4 A4-A5 A5-A6 A6-B6"/>
    </vehicle>
    <vehicle id="t219" depart="219.00">
        <route edges="B2-A2 A2-A3 A3-B3 B3-C3 C3-D3 D3-D2 D2-C2"/>
    </vehicle>
    <vehicle id="t220" depart="220.00">
        <route edges="D4-C4 C4-B4 B4-A4 A4-A5 A5-A6 A6-B6 B6-C6"/>
    </vehicle>
    <vehicle id="t221" depart="221.00">
        <route edges="F5-F4 F4-E4 E4-D4 D4-C4 C4-B4 B4-B3 B3-B2 B2-A2"/>
    </vehicle>
    <vehicle id="t222" depart="222.00">
        <route edges="E2-E3 E3-E4 E4-D4 D4-C4 C4-C5 C5-D5 D5-E5"/>
    </vehicle>
    <vehicle id="t223" depart="223.00">
        <route edges="B2-A2 A2-A3 A3-B3 B3-C3 C3-C4 C4-C5 C5-C6 C6-D6"/>
    </vehicle>
    <vehicle id="t224" depart="224.00">
        <route edges="A4-A5 A5-B5 B5-B4 B4-B3 B3-C3 C3-C4 C4-B4"/>
    </vehicle>
    <vehicle id="t225" depart="225.00">
        <route edges="A5-B5 B5-B4 B4-B3 B3-C3 C3-C4"/>
    </vehicle>
    <vehicle id="t226" depart="226.00">
        <route edges="D4-D3 D3-E3 E3-E4 E4-D4 D4-C4 C4-C5 C5-C6 C6-D6 D6-E6"/>
    </vehicle>
    <vehicle id="t227" depart="227.00">
        <route edges="C2-C3 C3-C4 C4-B4 B4-A4 A4-A5"/>
    </vehicle>
    <vehicle id="t228" depart="228.00">
        <route edges="E2-E3 E3-F3 F3-F2 F2-F1"/>
    </vehicle>
    <vehicle id="t229" depart="229.00">
        <route edges="C1-B1 B1-A1 A1-A2 A2-A3 A3-B3 B3-C3 C3-D3 D3-D2 D2-D1"/>
    </vehicle>
    <vehicle id="t230" depart="230.00">
        <route edges="C1-C2 C2-C3 C3-C4 C4-B4 B4-A4 A4-A5 A5-B5"/>
    </vehicle>
    <vehicle id="t231" depart="231.00">
        <route edges="B3-C3 C3-C4 C4-B4 B4-B3 B3-B2"/>
    </vehicle>
    <vehicle id="t232" depart="232.00">
        <route edges="C2-C3 C3-C4 C4-B4 B4-A4 A4-A5 A5-A6"/>
    </vehicle>
    <vehicle id="t233" depart="233.00">
        <route edges="A4-A5 A5-B5 B5-B4 B4-B3 B3-C3 C3-D3 D3-D2 D2-C2"/>
    </vehicle>
    <vehicle id="t234" depart="234.00">
        <route edges="F6-F5 F5-F4 F4-E4 E4-E5"/>
    </vehicle>
    <vehicle id="t235" depart="235.00">
        <route edges="E3-F3 F3-F2 F2-E2 E2-E3 E3-E4 E4-D4 D4-D3 D3-D2"/>
    </vehicle>
    <vehicle id="t236" depart="236.00">
        <route edges="F4-E4 E4-D4 D4-D3 D3-E3 E3-F3 F3-F2 F2-F1 F1-E1"/>
    </vehicle>
    <vehicle id="t237" depart="237.00">
        <route edges="C5-C6 C6-D6 D6-D5 D5-D4 D4-C4 C4-B4 B4-A4 A4-A5 A5-A6 A6-B6 B6-C6"/>
    </vehicle>
    <vehicle id="t238" depart="238.00">
        <route edges="A3-A4 A4-A5 A5-B5 B5-B4"/>
    </vehicle>
    <vehicle id="t239" depart="239.00">
        <route edges="F3-F2 F2-E2 E2-D2"/>
    </vehicle>
    <vehicle id="t240" depart="240.00">
        <route edges="D3-E3 E3-E4 E4-D4 D4-C4 C4-B4 B4-A4 A4-A5 A5-A6 A6-B6"/>
    </vehicle>
    <vehicle id="t241" depart="241.00">
        <route edges="B4-B3 B3-C3 C3-D3 D3-E3 E3-E4 E4-D4 D4-C4"/>
    </vehicle>
    <vehicle id="t242" depart="242.00">