<?xml version="1.0"?>

<!-- generated on Mon Aug 20 10:52:06 2012 by SUMO duarouter Version 0.15.0
<?xml version="1.0" encoding="UTF-8"?>

<configuration xmlns:xsi="http://www.w3.org/2001/XMLSchema-instance" xsi:noNamespaceSchemaLocation="http://sumo.sf.net/xsd/duarouterConfiguration.xsd">

    <input>
        <net-file value="/home/gauss/artavares/Dropbox/UFRGS/ti/trafficNets/sumo/grid6x6/net.net.xml"/>
        <trip-files value="trips.trips.xml"/>
    </input>

    <output>
        <output-file value="/home/gauss/artavares/workspace/vehicleTyper/trunk/test/input/input.rou.xml"/>
    </output>

</configuration>
-->

<routes xmlns:xsi="http://www.w3.org/2001/XMLSchema-instance" xsi:noNamespaceSchemaLocation="http://sumo.sf.net/xsd/routes_file.xsd">
    <vehicle id="t5000" depart="5000.00">
        <route edges="D3-E3 E3-E4 E4-D4 D4-D3 D3-D2"/>
    </vehicle>
    <vehicle id="t5001" depart="5001.00">
        <route edges="C4-C5 C5-D5 D5-E5 E5-F5 F5-F4"/>
    </vehicle>
    <vehicle id="t5002" depart="5002.00">
        <route edges="C6-D6 D6-D5 D5-D4 D4-C4 C4-B4 B4-B3 B3-B2 B2-A2"/>
    </vehicle>
    <vehicle id="t5003" depart="5003.00">
        <route edges="B3-C3 C3-D3 D3-D2 D2-C2 C2-C3"/>
    </vehicle>
    <vehicle id="t5004" depart="5004.00">
        <route edges="C2-B2 B2-A2 A2-A3 A3-B3 B3-C3 C3-D3 D3-E3 E3-F3 F3-F2 F2-E2 E2-D2"/>
    </vehicle>
    <vehicle id="t5005" depart="5005.00">
        <route edges="F4-F3 F3-F2 F2-E2 E2-D2 D2-C2 C2-B2 B2-A2 A2-A3"/>
    </vehicle>
    <vehicle id="t5006" depart="5006.00">
        <route edges="F2-F1 F1-E1 E1-E2 E2-E3 E3-E4 E4-E5 E5-F5"/>
    </vehicle>
    <vehicle id="t5007" depart="5007.00">
        <route edges="C3-D3 D3-E3 E3-E4 E4-E5 E5-F5 F5-F4"/>
    </vehicle>
    <vehicle id="t5008" depart="5008.00">
        <route edges="E5-F5 F5-F4 F4-E4 E4-D4 D4-C4 C4-B4 B4-B3 B3-B2 B2-B1 B1-A1"/>
    </vehicle>
    <vehicle id="t5009" depart="5009.00">
        <route edges="C3-C4 C4-C5 C5-D5 D5-E5 E5-E6 E6-F6"/>
    </vehicle>
    <vehicle id="t5010" depart="5010.00">
        <route edges="A4-A5 A5-B5 B5-B4 B4-B3 B3-C3 C3-D3 D3-E3 E3-F3 F3-F2 F2-F1 F1-E1 E1-E2"/>
    </vehicle>
    <vehicle id="t5011" depart="5011.00">
        <route edges="E4-E5 E5-F5 F5-F4"/>
    </vehicle>
    <vehicle id="t5012" depart="5012.00">
        <route edges="F6-F5 F5-F4 F4-E4 E4-E5"/>
    </vehicle>
    <vehicle id="t5013" depart="5013.00">
        <route edges="C5-D5 D5-D4 D4-C4 C4-C5 C5-C6 C6-D6"/>
    </vehicle>
    <vehicle id="t5014" depart="5014.00">
        <route edges="F2-E2 E2-D2 D2-C2 C2-C3 C3-D3"/>
    </vehicle>
    <vehicle id="t5015" depart="5015.00">
        <route edges="E5-E6 E6-F6 F6-F5 F5-F4 F4-E4 E4-D4 D4-C4 C4-B4 B4-A4 A4-A5"/>
    </vehicle>
    <vehicle id="t5016" depart="5016.00">
        <route edges="F2-F1 F1-E1 E1-E2 E2-E3 E3-E4 E4-D4 D4-D3 D3-D2"/>
    </vehicle>
    <vehicle id="t5017" depart="5017.00">
        <route edges="A4-A5 A5-B5 B5-B4 B4-B3 B3-C3 C3-D3 D3-E3 E3-E4 E4-D4"/>
    </vehicle>
    <vehicle id="t5018" depart="5018.00">
        <route edges="B4-A4 A4-A5 A5-B5 B5-B4 B4-B3 B3-C3 C3-D3 D3-E3 E3-F3 F3-F2 F2-E2"/>
    </vehicle>
    <vehicle id="t5019" depart="5019.00">
        <route edges="B3-C3 C3-C4 C4-B4 B4-A4 A4-A5 A5-A6"/>
    </vehicle>
    <vehicle id="t5020" depart="5020.00">
        <route edges="E1-D1 D1-C1 C1-C2 C2-C3 C3-C4 C4-C5 C5-C6 C6-D6"/>
    </vehicle>
    <vehicle id="t5021" depart="5021.00">
        <route edges="C6-D6 D6-D5 D5-D4 D4-C4 C4-B4"/>
    </vehicle>
    <vehicle id="t5022" depart="5022.00">
        <route edges="F6-F5 F5-F4 F4-F3"/>
    </vehicle>
    <vehicle id="t5023" depart="5023.00">
        <route edges="A6-B6 B6-B5 B5-C5 C5-C6"/>
    </vehicle>
    <vehicle id="t5024" depart="5024.00">
        <route edges="A3-B3 B3-C3 C3-D3 D3-E3 E3-F3"/>
    </vehicle>
    <vehicle id="t5025" depart="5025.00">
        <route edges="C3-D3 D3-D2 D2-C2 C2-B2 B2-B1"/>
    </vehicle>
    <vehicle id="t5026" depart="5026.00">
        <route edges="E2-D2 D2-C2 C2-C3 C3-D3 D3-E3 E3-E4"/>
    </vehicle>
    <vehicle id="t5027" depart="5027.00">
        <route edges="E4-E5 E5-F5 F5-F4 F4-E4 E4-D4 D4-C4 C4-C5"/>
    </vehicle>
    <vehicle id="t5028" depart="5028.00">
        <route edges="A1-A2 A2-A3 A3-B3 B3-C3 C3-D3 D3-E3"/>
    </vehicle>
    <vehicle id="t5029" depart="5029.00">
        <route edges="E2-E3 E3-E4 E4-D4 D4-C4 C4-B4 B4-B3 B3-B2 B2-A2"/>
    </vehicle>
    <vehicle id="t5030" depart="5030.00">
        <route edges="B5-C5 C5-D5 D5-D4 D4-C4 C4-C5"/>
    </vehicle>
    <vehicle id="t5031" depart="5031.00">
        <route edges="C2-B2 B2-A2"/>
    </vehicle>
    <vehicle id="t5032" depart="5032.00">
        <route edges="C1-B1 B1-A1 A1-A2 A2-A3 A3-B3 B3-B2 B2-A2"/>
    </vehicle>
    <vehicle id="t5033" depart="5033.00">
        <route edges="A3-A4 A4-A5 A5-B5 B5-B4 B4-B3"/>
    </vehicle>
    <vehicle id="t5034" depart="5034.00">
        <route edges="C4-B4 B4-A4 A4-A5 A5-A6 A6-B6 B6-B5"/>
    </vehicle>
    <vehicle id="t5035" depart="5035.00">
        <route edges="E5-E6 E6-F6 F6-F5 F5-F4 F4-E4 E4-D4 D4-C4 C4-C5 C5-C6"/>
    </vehicle>
    <vehicle id="t5036" depart="5036.00">
        <route edges="C2-B2 B2-A2"/>
    </vehicle>
    <vehicle id="t5037" depart="5037.00">
        <route edges="C2-C3 C3-C4 C4-B4 B4-A4 A4-A5 A5-A6 A6-B6 B6-B5"/>
    </vehicle>
    <vehicle id="t5038" depart="5038.00">
        <route edges="C6-D6 D6-D5 D5-D4 D4-C4 C4-B4 B4-A4 A4-A5 A5-B5 B5-B4"/>
    </vehicle>
    <vehicle id="t5039" depart="5039.00">
        <route edges="D1-C1 C1-C2 C2-B2 B2-A2 A2-A3 A3-B3"/>
    </vehicle>
    <vehicle id="t5040" depart="5040.00">
        <route edges="E1-D1 D1-C1 C1-C2 C2-C3 C3-C4 C4-C5 C5-D5 D5-D4"/>
    </vehicle>
    <vehicle id="t5041" depart="5041.00">
        <route edges="C5-D5 D5-D4 D4-D3 D3-E3 E3-F3 F3-F2 F2-F1 F1-E1 E1-E2"/>
    </vehicle>
    <vehicle id="t5042" depart="5042.00">
        <route edges="F3-F2 F2-E2 E2-E3 E3-E4 E4-D4 D4-C4 C4-B4 B4-A4 A4-A5 A5-B5 B5-C5"/>
    </vehicle>
    <vehicle id="t5043" depart="5043.00">
        <route edges="C3-C4 C4-C5 C5-C6 C6-D6 D6-D5"/>
    </vehicle>
    <vehicle id="t5044" depart="5044.00">
        <route edges="B4-A4 A4-A5 A5-B5 B5-B4 B4-B3 B3-C3 C3-D3 D3-D2 D2-D1 D1-C1 C1-B1"/>
    </vehicle>
    <vehicle id="t5045" depart="5045.00">
        <route edges="E5-F5 F5-F4 F4-F3 F3-F2 F2-F1 F1-E1 E1-E2"/>
    </vehicle>
    <vehicle id="t5046" depart="5046.00">
        <route edges="A2-A3 A3-B3 B3-C3 C3-D3 D3-D2 D2-D1 D1-C1"/>
    </vehicle>
    <vehicle id="t5047" depart="5047.00">
        <route edges="D6-E6 E6-F6 F6-F5 F5-F4 F4-E4 E4-D4 D4-D3 D3-E3 E3-F3"/>
    </vehicle>
    <vehicle id="t5048" depart="5048.00">
        <route edges="C1-B1 B1-A1 A1-A2 A2-A3 A3-B3 B3-C3 C3-D3 D3-E3 E3-E4 E4-D4 D4-C4"/>
    </vehicle>
    <vehicle id="t5049" depart="5049.00">
        <route edges="F6-F5 F5-F4 F4-E4 E4-D4 D4-C4 C4-B4 B4-A4 A4-A5 A5-B5 B5-B4"/>
    </vehicle>
    <vehicle id="t5050" depart="5050.00">
        <route edges="E5-F5 F5-F4 F4-E4 E4-D4 D4-C4 C4-B4 B4-B3 B3-B2 B2-A2 A2-A3 A3-A4"/>
    </vehicle>
    <vehicle id="t5051" depart="5051.00">
        <route edges="E5-E6 E6-F6 F6-F5 F5-F4 F4-E4 E4-D4 D4-C4 C4-B4 B4-B3 B3-C3"/>
    </vehicle>
    <vehicle id="t5052" depart="5052.00">
        <route edges="F2-F1 F1-E1 E1-E2 E2-E3 E3-E4 E4-D4 D4-C4 C4-B4 B4-B3 B3-C3"/>
    </vehicle>
    <vehicle id="t5053" depart="5053.00">
        <route edges="B1-A1 A1-A2 A2-A3 A3-B3 B3-C3 C3-D3 D3-E3 E3-E4 E4-E5"/>
    </vehicle>
    <vehicle id="t5054" depart="5054.00">
        <route edges="A4-A5 A5-B5 B5-C5 C5-D5 D5-E5 E5-E6 E6-F6 F6-F5"/>
    </vehicle>
    <vehicle id="t5055" depart="5055.00">
        <route edges="E2-E3 E3-E4 E4-D4 D4-D3 D3-D2"/>
    </vehicle>
    <vehicle id="t5056" depart="5056.00">
        <route edges="F2-F1 F1-E1 E1-E2 E2-E3 E3-E4 E4-D4 D4-C4 C4-B4 B4-A4"/>
    </vehicle>
    <vehicle id="t5057" depart="5057.00">
        <route edges="A1-A2 A2-A3 A3-B3 B3-C3 C3-D3 D3-E3 E3-E4"/>
    </vehicle>
    <vehicle id="t5058" depart="5058.00">
        <route edges="E3-F3 F3-F2 F2-E2 E2-D2 D2-D1 D1-C1 C1-B1"/>
    </vehicle>
    <vehicle id="t5059" depart="5059.00">
        <route edges="A6-B6 B6-B5 B5-B4 B4-B3 B3-C3 C3-D3 D3-D2 D2-D1"/>
    </vehicle>
    <vehicle id="t5060" depart="5060.00">
        <route edges="C1-B1 B1-A1 A1-A2 A2-A3 A3-B3 B3-C3 C3-C4 C4-C5 C5-D5 D5-D4"/>
    </vehicle>
    <vehicle id="t5061" depart="5061.00">
        <route edges="A3-B3 B3-C3 C3-C4"/>
    </vehicle>
    <vehicle id="t5062" depart="5062.00">
        <route edges="A5-B5 B5-C5 C5-D5 D5-D4 D4-D3 D3-D2 D2-C2"/>
    </vehicle>
    <vehicle id="t5063" depart="5063.00">
        <route edges="A6-B6 B6-C6"/>
    </vehicle>
    <vehicle id="t5064" depart="5064.00">
        <route edges="A3-A4 A4-A5 A5-B5 B5-B4 B4-B3"/>
    </vehicle>
    <vehicle id="t5065" depart="5065.00">
        <route edges="C6-D6 D6-D5 D5-E5"/>
    </vehicle>
    <vehicle id="t5066" depart="5066.00">
        <route edges="B6-C6 C6-D6 D6-D5 D5-D4 D4-C4 C4-B4 B4-A4"/>
    </vehicle>
    <vehicle id="t5067" depart="5067.00">
        <route edges="C1-B1 B1-A1 A1-A2 A2-A3 A3-B3 B3-C3 C3-D3 D3-E3 E3-E4"/>
    </vehicle>
    <vehicle id="t5068" depart="5068.00">
        <route edges="D2-D1 D1-C1 C1-C2 C2-B2 B2-A2 A2-A3"/>
    </vehicle>
    <vehicle id="t5069" depart="5069.00">
        <route edges="D1-C1 C1-C2 C2-C3 C3-C4 C4-B4 B4-A4 A4-A5 A5-B5 B5-C5"/>
    </vehicle>
    <vehicle id="t5070" depart="5070.00">
        <route edges="D2-C2 C2-B2 B2-A2 A2-A3 A3-A4"/>
    </vehicle>
    <vehicle id="t5071" depart="5071.00">
        <route edges="F4-E4 E4-D4 D4-C4 C4-C5 C5-C6 C6-D6 D6-E6"/>
    </vehicle>
    <vehicle id="t5072" depart="5072.00">
        <route edges="E3-E4 E4-D4 D4-C4 C4-B4 B4-B3 B3-B2 B2-B1 B1-A1 A1-A2"/>
    </vehicle>
    <vehicle id="t5073" depart="5073.00">
        <route edges="B4-A4 A4-A5 A5-A6 A6-B6 B6-B5"/>
    </vehicle>
    <vehicle id="t5074" depart="5074.00">
        <route edges="B2-A2 A2-A3 A3-B3 B3-C3 C3-C4 C4-C5 C5-D5 D5-E5"/>
    </vehicle>
    <vehicle id="t5075" depart="5075.00">
        <route edges="B5-B4"/>
    </vehicle>
    <vehicle id="t5076" depart="5076.00">
        <route edges="F2-E2 E2-E3 E3-F3 F3-F2 F2-F1 F1-E1 E1-D1"/>
    </vehicle>
    <vehicle id="t5077" depart="5077.00">
        <route edges="A5-B5 B5-C5 C5-D5 D5-D4 D4-D3 D3-E3 E3-E4 E4-D4"/>
    </vehicle>
    <vehicle id="t5078" depart="5078.00">
        <route edges="D1-C1 C1-C2 C2-C3 C3-D3 D3-E3 E3-F3"/>
    </vehicle>
    <vehicle id="t5079" depart="5079.00">
        <route edges="A3-B3 B3-C3"/>
    </vehicle>
    <vehicle id="t5080" depart="5080.00">
        <route edges="F3-F2 F2-F1 F1-E1 E1-D1"/>
    </vehicle>
    <vehicle id="t5081" depart="5081.00">
        <route edges="F5-F4 F4-E4 E4-D4 D4-C4 C4-C5 C5-C6"/>
    </vehicle>
    <vehicle id="t5082" depart="5082.00">
        <route edges="A5-A6 A6-B6 B6-B5 B5-B4 B4-A4 A4-A5 A5-B5"/>
    </vehicle>
    <vehicle id="t5083" depart="5083.00">
        <route edges="D6-E6 E6-F6 F6-F5 F5-F4 F4-E4 E4-D4 D4-C4 C4-B4 B4-B3 B3-B2"/>
    </vehicle>
    <vehicle id="t5084" depart="5084.00">
        <route edges="B4-A4 A4-A5 A5-B5 B5-B4 B4-B3"/>
    </vehicle>
    <vehicle id="t5085" depart="5085.00">
        <route edges="D4-D3 D3-E3 E3-E4 E4-D4 D4-C4"/>
    </vehicle>
    <vehicle id="t5086" depart="5086.00">
        <route edges="D6-E6 E6-F6 F6-F5 F5-F4 F4-E4 E4-D4 D4-C4 C4-B4 B4-B3 B3-B2 B2-A2 A2-A3 A3-B3"/>
    </vehicle>
    <vehicle id="t5087" depart="5087.00">
        <route edges="C5-D5 D5-D4 D4-D3 D3-D2 D2-C2"/>
    </vehicle>
    <vehicle id="t5088" depart="5088.00">
        <route edges="E4-E5 E5-F5 F5-F4 F4-E4 E4-D4 D4-D3 D3-D2 D2-D1 D1-C1"/>
    </vehicle>
    <vehicle id="t5089" depart="5089.00">
        <route edges="C1-B1 B1-A1 A1-A2 A2-A3 A3-B3 B3-C3 C3-C4"/>
    </vehicle>
    <vehicle id="t5090" depart="5090.00">
        <route edges="C5-D5 D5-D4 D4-C4 C4-B4 B4-A4 A4-A5 A5-A6 A6-B6 B6-C6"/>
    </vehicle>
    <vehicle id="t5091" depart="5091.00">
        <route edges="C1-B1"/>
    </vehicle>
    <vehicle id="t5092" depart="5092.00">
        <route edges="E2-D2 D2-C2 C2-C3 C3-D3 D3-E3 E3-E4 E4-E5 E5-F5 F5-F4 F4-E4"/>
    </vehicle>
    <vehicle id="t5093" depart="5093.00">
        <route edges="D2-D1 D1-C1 C1-C2 C2-C3 C3-D3 D3-E3 E3-E4 E4-E5 E5-F5 F5-F4 F4-E4"/>
    </vehicle>
    <vehicle id="t5094" depart="5094.00">
        <route edges="A1-A2 A2-A3 A3-A4 A4-A5 A5-A6 A6-B6"/>
    </vehicle>
    <vehicle id="t5095" depart="5095.00">
        <route edges="E1-D1 D1-C1 C1-C2 C2-C3 C3-D3 D3-D2 D2-D1"/>
    </vehicle>
    <vehicle id="t5096" depart="5096.00">
        <route edges="B2-B1 B1-A1 A1-A2 A2-A3 A3-B3 B3-C3 C3-D3 D3-E3 E3-E4 E4-E5 E5-F5"/>
    </vehicle>
    <vehicle id="t5097" depart="5097.00">
        <route edges="C2-B2 B2-A2 A2-A3 A3-B3 B3-C3 C3-C4 C4-C5 C5-D5 D5-D4"/>
    </vehicle>
    <vehicle id="t5098" depart="5098.00">
        <route edges="E2-D2 D2-C2 C2-C3 C3-D3 D3-E3 E3-E4 E4-E5 E5-F5 F5-F4 F4-E4"/>
    </vehicle>
    <vehicle id="t5099" depart="5099.00">
        <route edges="B5-C5 C5-D5 D5-D4 D4-C4 C4-B4 B4-A4 A4-A5"/>
    </vehicle>
    <vehicle id="t5100" depart="5100.00">
        <route edges="C2-C3 C3-D3 D3-D2 D2-C2 C2-B2"/>
    </vehicle>
    <vehicle id="t5101" depart="5101.00">
        <route edges="E4-D4 D4-D3 D3-E3 E3-F3 F3-F2 F2-F1"/>
    </vehicle>
    <vehicle id="t5102" depart="5102.00">
        <route edges="C4-B4 B4-B3 B3-C3 C3-D3 D3-E3 E3-F3 F3-F2 F2-F1 F1-E1 E1-D1"/>
    </vehicle>
    <vehicle id="t5103" depart="5103.00">
        <route edges="D6-D5"/>
    </vehicle>
    <vehicle id="t5104" depart="5104.00">
        <route edges="C1-B1 B1-A1 A1-A2 A2-A3 A3-B3 B3-C3 C3-D3 D3-D2 D2-C2 C2-B2"/>
    </vehicle>
    <vehicle id="t5105" depart="5105.00">
        <route edges="F5-F4 F4-E4 E4-E5 E5-E6"/>
    </vehicle>
    <vehicle id="t5106" depart="5106.00">
        <route edges="D5-D4 D4-C4 C4-B4 B4-A4"/>
    </vehicle>
    <vehicle id="t5107" depart="5107.00">
        <route edges="B5-B4 B4-B3 B3-B2 B2-A2"/>
    </vehicle>
    <vehicle id="t5108" depart="5108.00">
        <route edges="A6-B6 B6-B5 B5-C5 C5-D5 D5-D4 D4-C4"/>
    </vehicle>
    <vehicle id="t5109" depart="5109.00">
        <route edges="F1-E1 E1-E2 E2-E3 E3-E4 E4-D4 D4-C4 C4-B4 B4-B3 B3-B2"/>
    </vehicle>
    <vehicle id="t5110" depart="5110.00">
        <route edges="E1-D1 D1-C1 C1-C2 C2-B2 B2-A2"/>
    </vehicle>
    <vehicle id="t5111" depart="5111.00">
        <route edges="A3-A4 A4-A5 A5-B5 B5-B4 B4-B3 B3-C3 C3-D3 D3-E3"/>
    </vehicle>
    <vehicle id="t5112" depart="5112.00">
        <route edges="D6-E6 E6-F6 F6-F5 F5-F4 F4-E4 E4-E5 E5-F5"/>
    </vehicle>
    <vehicle id="t5113" depart="5113.00">
        <route edges="C1-C2 C2-C3 C3-D3 D3-E3 E3-E4 E4-D4 D4-D3"/>
    </vehicle>
    <vehicle id="t5114" depart="5114.00">
        <route edges="D2-C2 C2-C3 C3-C4 C4-B4 B4-A4"/>
    </vehicle>
    <vehicle id="t5115" depart="5115.00">
        <route edges="A5-A6 A6-B6 B6-B5 B5-B4 B4-B3 B3-C3 C3-C4"/>
    </vehicle>
    <vehicle id="t5116" depart="5116.00">
        <route edges="A5-B5 B5-B4 B4-B3 B3-B2 B2-A2 A2-A3"/>
    </vehicle>
    <vehicle id="t5117" depart="5117.00">
        <route edges="F2-F1 F1-E1 E1-E2 E2-E3 E3-F3 F3-F2"/>
    </vehicle>
    <vehicle id="t5118" depart="5118.00">
        <route edges="F2-E2 E2-E3 E3-E4 E4-E5 E5-F5 F5-F4 F4-F3"/>
    </vehicle>
    <vehicle id="t5119" depart="5119.00">
        <route edges="A3-A4 A4-A5 A5-B5 B5-B4 B4-B3 B3-C3 C3-C4"/>
    </vehicle>
    <vehicle id="t5120" depart="5120.00">
        <route edges="C3-C4 C4-B4 B4-B3 B3-B2 B2-B1 B1-A1"/>
    </vehicle>
    <vehicle id="t5121" depart="5121.00">
        <route edges="C5-D5 D5-D4 D4-D3"/>
    </vehicle>
    <vehicle id="t5122" depart="5122.00">
        <route edges="B5-B4 B4-B3 B3-C3 C3-D3 D3-E3 E3-E4 E4-E5 E5-E6"/>
    </vehicle>
    <vehicle id="t5123" depart="5123.00">
        <route edges="F6-F5 F5-F4 F4-E4 E4-D4 D4-C4 C4-C5 C5-C6 C6-D6 D6-E6"/>
    </vehicle>
    <vehicle id="t5124" depart="5124.00">
        <route edges="D2-C2 C2-C3 C3-D3 D3-E3 E3-F3"/>
    </vehicle>
    <vehicle id="t5125" depart="5125.00">
        <route edges="B6-B5 B5-B4 B4-B3 B3-C3 C3-C4 C4-B4"/>
    </vehicle>
    <vehicle id="t5126" depart="5126.00">
        <route edges="A4-A5 A5-B5 B5-B4 B4-B3 B3-C3 C3-D3 D3-E3 E3-F3 F3-F2 F2-E2 E2-E3"/>
    </vehicle>
    <vehicle id="t5127" depart="5127.00">
        <route edges="C4-B4 B4-B3 B3-C3 C3-D3 D3-E3 E3-E4 E4-E5 E5-F5 F5-F4 F4-E4"/>
    </vehicle>
    <vehicle id="t5128" depart="5128.00">
        <route edges="B4-B3 B3-C3 C3-D3 D3-D2"/>
    </vehicle>
    <vehicle id="t5129" depart="5129.00">
        <route edges="B4-B3 B3-C3 C3-C4 C4-C5 C5-C6 C6-D6 D6-E6"/>
    </vehicle>
    <vehicle id="t5130" depart="5130.00">
        <route edges="A5-B5 B5-C5 C5-C6 C6-D6"/>
    </vehicle>
    <vehicle id="t5131" depart="5131.00">
        <route edges="D2-D1 D1-C1 C1-C2 C2-C3 C3-D3 D3-E3 E3-F3"/>
    </vehicle>
    <vehicle id="t5132" depart="5132.00">
        <route edges="D2-C2 C2-C3 C3-D3 D3-D2 D2-D1"/>
    </vehicle>
    <vehicle id="t5133" depart="5133.00">
        <route edges="E3-E4 E4-E5 E5-F5"/>
    </vehicle>
    <vehicle id="t5134" depart="5134.00">
        <route edges="D4-D3 D3-E3 E3-F3 F3-F2 F2-E2 E2-D2"/>
    </vehicle>
    <vehicle id="t5135" depart="5135.00">
        <route edges="D4-C4 C4-C5 C5-D5 D5-E5 E5-E6 E6-F6 F6-F5"/>
    </vehicle>
    <vehicle id="t5136" depart="5136.00">
        <route edges="A3-A4 A4-A5 A5-B5 B5-B4 B4-B3 B3-C3 C3-D3 D3-E3 E3-F3 F3-F2 F2-F1 F1-E1"/>
    </vehicle>
    <vehicle id="t5137" depart="5137.00">
        <route edges="B1-A1 A1-A2 A2-A3 A3-B3 B3-C3 C3-D3 D3-E3 E3-E4"/>
    </vehicle>
    <vehicle id="t5138" depart="5138.00">
        <route edges="B5-C5"/>
    </vehicle>
    <vehicle id="t5139" depart="5139.00">
        <route edges="F6-F5 F5-F4 F4-E4 E4-D4 D4-C4 C4-B4 B4-B3 B3-B2 B2-B1 B1-A1"/>
    </vehicle>
    <vehicle id="t5140" depart="5140.00">
        <route edges="D3-E3 E3-E4 E4-D4 D4-C4 C4-B4 B4-A4 A4-A5 A5-B5"/>
    </vehicle>
    <vehicle id="t5141" depart="5141.00">
        <route edges="B5-C5 C5-D5 D5-D4 D4-C4 C4-C5"/>
    </vehicle>
    <vehicle id="t5142" depart="5142.00">
        <route edges="D5-E5 E5-F5 F5-F4 F4-E4 E4-D4 D4-C4 C4-B4 B4-A4 A4-A5 A5-B5"/>
    </vehicle>
    <vehicle id="t5143" depart="5143.00">
        <route edges="C6-D6 D6-D5 D5-D4 D4-D3 D3-E3 E3-F3 F3-F2 F2-F1 F1-E1 E1-E2"/>
    </vehicle>
    <vehicle id="t5144" depart="5144.00">
        <route edges="C5-D5 D5-D4 D4-C4 C4-B4 B4-B3 B3-B2 B2-B1 B1-A1 A1-A2"/>
    </vehicle>
    <vehicle id="t5145" depart="5145.00">
        <route edges="F2-E2 E2-E3 E3-E4 E4-D4 D4-C4 C4-B4 B4-A4 A4-A5 A5-A6"/>
    </vehicle>
    <vehicle id="t5146" depart="5146.00">
        <route edges="D5-D4 D4-C4 C4-B4 B4-B3 B3-C3 C3-C4"/>
    </vehicle>
    <vehicle id="t5147" depart="5147.00">
        <route edges="C4-C5 C5-D5 D5-D4 D4-D3 D3-D2 D2-D1 D1-C1 C1-B1"/>
    </vehicle>
    <vehicle id="t5148" depart="5148.00">
        <route edges="D2-D1 D1-C1 C1-C2 C2-C3 C3-C4 C4-C5 C5-D5 D5-D4"/>
    </vehicle>
    <vehicle id="t5149" depart="5149.00">
        <route edges="E1-D1 D1-C1 C1-C2 C2-C3 C3-D3 D3-E3 E3-E4 E4-E5 E5-F5"/>
    </vehicle>
    <vehicle id="t5150" depart="5150.00">
        <route edges="B2-A2 A2-A3 A3-B3 B3-C3 C3-D3 D3-E3 E3-E4 E4-D4"/>
    </vehicle>
    <vehicle id="t5151" depart="5151.00">
        <route edges="E2-D2 D2-C2 C2-B2 B2-A2 A2-A3 A3-B3"/>
    </vehicle>
    <vehicle id="t5152" depart="5152.00">
        <route edges="A5-B5 B5-B4 B4-B3 B3-B2"/>
    </vehicle>
    <vehicle id="t5153" depart="5153.00">
        <route edges="E4-E5 E5-F5 F5-F4 F4-F3 F3-F2 F2-F1 F1-E1 E1-D1"/>
    </vehicle>
    <vehicle id="t5154" depart="5154.00">
        <route edges="E4-E5 E5-F5 F5-F4 F4-E4 E4-D4 D4-C4 C4-B4 B4-A4 A4-A5"/>
    </vehicle>
    <vehicle id="t5155" depart="5155.00">
        <route edges="A5-A6 A6-B6 B6-B5 B5-B4 B4-B3 B3-C3 C3-D3 D3-E3 E3-E4"/>
    </vehicle>
    <vehicle id="t5156" depart="5156.00">
        <route edges="C2-C3 C3-C4 C4-B4 B4-B3 B3-B2 B2-A2"/>
    </vehicle>
    <vehicle id="t5157" depart="5157.00">
        <route edges="B3-B2 B2-A2 A2-A3 A3-A4 A4-A5 A5-B5 B5-C5"/>
    </vehicle>
    <vehicle id="t5158" depart="5158.00">
        <route edges="D4-D3 D3-E3 E3-F3 F3-F2 F2-F1 F1-E1"/>
    </vehicle>
    <vehicle id="t5159" depart="5159.00">
        <route edges="B5-B4 B4-B3 B3-C3 C3-C4 C4-C5 C5-D5 D5-E5"/>
    </vehicle>
    <vehicle id="t5160" depart="5160.00">
        <route edges="A5-B5 B5-C5 C5-C6 C6-D6"/>
    </vehicle>
    <vehicle id="t5161" depart="5161.00">
        <route edges="F4-F3 F3-F2 F2-E2 E2-D2 D2-C2 C2-B2 B2-B1"/>
    </vehicle>
    <vehicle id="t5162" depart="5162.00">
        <route edges="D3-D2 D2-C2 C2-C3 C3-C4 C4-C5 C5-D5 D5-D4"/>
    </vehicle>
    <vehicle id="t5163" depart="5163.00">
        <route edges="B4-B3 B3-C3 C3-C4 C4-C5 C5-C6 C6-D6"/>
    </vehicle>
    <vehicle id="t5164" depart="5164.00">
        <route edges="D3-E3 E3-E4 E4-D4 D4-C4 C4-B4 B4-A4 A4-A5 A5-B5 B5-C5"/>
    </vehicle>
    <vehicle id="t5165" depart="5165.00">
        <route edges="E4-D4 D4-D3 D3-E3 E3-E4 E4-E5"/>
    </vehicle>
    <vehicle id="t5166" depart="5166.00">
        <route edges="F2-E2 E2-E3 E3-E4 E4-D4 D4-C4 C4-B4 B4-B3 B3-C3"/>
    </vehicle>
    <vehicle id="t5167" depart="5167.00">
        <route edges="F2-F1 F1-E1 E1-E2 E2-D2 D2-C2 C2-B2 B2-B1"/>
    </vehicle>
    <vehicle id="t5168" depart="5168.00">
        <route edges="B4-A4 A4-A5 A5-B5 B5-B4 B4-B3 B3-B2 B2-A2 A2-A3 A3-A4"/>
    </vehicle>
    <vehicle id="t5169" depart="5169.00">
        <route edges="C5-C6 C6-D6 D6-D5 D5-D4 D4-C4 C4-C5 C5-D5"/>
    </vehicle>
    <vehicle id="t5170" depart="5170.00">
        <route edges="E6-F6 F6-F5 F5-F4 F4-E4 E4-D4 D4-C4 C4-C5 C5-C6 C6-D6 D6-E6"/>
    </vehicle>
    <vehicle id="t5171" depart="5171.00">
        <route edges="A6-B6 B6-B5 B5-C5 C5-D5 D5-E5 E5-F5"/>
    </vehicle>
    <vehicle id="t5172" depart="5172.00">
        <route edges="C1-B1 B1-A1 A1-A2 A2-A3 A3-B3 B3-C3 C3-C4 C4-C5"/>
    </vehicle>
    <vehicle id="t5173" depart="5173.00">
        <route edges="B4-A4 A4-A5 A5-B5 B5-C5 C5-D5 D5-D4 D4-D3"/>
    </vehicle>
    <vehicle id="t5174" depart="5174.00">
        <route edges="E5-F5 F5-F4 F4-F3 F3-F2 F2-F1 F1-E1 E1-E2"/>
    </vehicle>
    <vehicle id="t5175" depart="5175.00">
        <route edges="B1-A1 A1-A2 A2-A3 A3-B3 B3-C3 C3-D3 D3-E3 E3-F3 F3-F2 F2-F1 F1-E1"/>
    </vehicle>
    <vehicle id="t5176" depart="5176.00">
        <route edges="D2-C2 C2-C3 C3-C4"/>
    </vehicle>
    <vehicle id="t5177" depart="5177.00">
        <route edges="A1-A2 A2-A3 A3-B3 B3-C3 C3-D3 D3-E3 E3-E4 E4-E5 E5-E6"/>
    </vehicle>
    <vehicle id="t5178" depart="5178.00">
        <route edges="D5-E5 E5-F5 F5-F4 F4-E4 E4-D4 D4-C4 C4-C5 C5-D5 D5-D4"/>
    </vehicle>
    <vehicle id="t5179" depart="5179.00">
        <route edges="D3-D2 D2-C2 C2-C3 C3-D3 D3-E3 E3-E4 E4-D4 D4-D3"/>
    </vehicle>
    <vehicle id="t5180" depart="5180.00">
        <route edges="C3-C4 C4-C5 C5-D5 D5-E5"/>
    </vehicle>
    <vehicle id="t5181" depart="5181.00">
        <route edges="E2-E3 E3-F3 F3-F2 F2-F1 F1-E1 E1-E2"/>
    </vehicle>
    <vehicle id="t5182" depart="5182.00">
        <route edges="A2-A3 A3-B3 B3-C3 C3-D3 D3-E3 E3-F3 F3-F2 F2-E2 E2-D2"/>
    </vehicle>
    <vehicle id="t5183" depart="5183.00">
        <route edges="E4-D4 D4-D3 D3-D2 D2-C2 C2-B2 B2-B1 B1-A1"/>
    </vehicle>
    <vehicle id="t5184" depart="5184.00">
        <route edges="F4-F3 F3-F2 F2-E2 E2-E3 E3-E4 E4-E5 E5-F5 F5-F4 F4-E4"/>
    </vehicle>
    <vehicle id="t5185" depart="5185.00">
        <route edges="E6-F6 F6-F5 F5-F4 F4-E4 E4-D4 D4-C4 C4-C5 C5-D5 D5-E5"/>
    </vehicle>
    <vehicle id="t5186" depart="5186.00">
        <route edges="E4-E5 E5-F5 F5-F4 F4-E4 E4-D4 D4-C4 C4-B4 B4-B3 B3-B2 B2-B1"/>
    </vehicle>
    <vehicle id="t5187" depart="5187.00">
        <route edges="F2-F1 F1-E1 E1-E2 E2-E3 E3-E4 E4-D4"/>
    </vehicle>
    <vehicle id="t5188" depart="5188.00">
        <route edges="F4-E4 E4-D4 D4-D3 D3-D2 D2-D1 D1-C1 C1-C2"/>
    </vehicle>
    <vehicle id="t5189" depart="5189.00">
        <route edges="B2-B1 B1-A1"/>
    </vehicle>
    <vehicle id="t5190" depart="5190.00">
        <route edges="E2-D2 D2-C2 C2-C3 C3-C4 C4-B4 B4-A4 A4-A5 A5-A6"/>
    </vehicle>
    <vehicle id="t5191" depart="5191.00">
        <route edges="A6-B6 B6-B5 B5-C5 C5-D5 D5-D4 D4-C4"/>
    </vehicle>
    <vehicle id="t5192" depart="5192.00">
        <route edges="B3-B2 B2-A2 A2-A3 A3-B3 B3-C3 C3-D3 D3-E3 E3-E4 E4-E5 E5-F5"/>
    </vehicle>
    <vehicle id="t5193" depart="5193.00">
        <route edges="D2-C2 C2-C3 C3-C4 C4-C5 C5-D5 D5-E5"/>
    </vehicle>
    <vehicle id="t5194" depart="5194.00">
        <route edges="E6-F6 F6-F5 F5-F4 F4-E4 E4-D4 D4-C4 C4-C5 C5-C6 C6-D6 D6-D5"/>
    </vehicle>
    <vehicle id="t5195" depart="5195.00">
        <route edges="B3-B2 B2-A2 A2-A3 A3-A4 A4-A5 A5-B5 B5-B4"/>
    </vehicle>
    <vehicle id="t5196" depart="5196.00">
        <route edges="E6-F6 F6-F5 F5-F4 F4-E4 E4-D4 D4-C4 C4-B4 B4-B3 B3-B2 B2-B1 B1-A1"/>
    </vehicle>
    <vehicle id="t5197" depart="5197.00">
        <route edges="B4-A4 A4-A5 A5-B5 B5-B4"/>
    </vehicle>
    <vehicle id="t5198" depart="5198.00">
        <route edges="C5-C6 C6-D6"/>
    </vehicle>
    <vehicle id="t5199" depart="5199.00">
        <route edges="E6-F6 F6-F5 F5-F4 F4-E4 E4-D4 D4-C4 C4-B4 B4-B3 B3-C3"/>
    </vehicle>
    <vehicle id="t5200" depart="5200.00">
        <route edges="E4-E5 E5-F5 F5-F4 F4-F3 F3-F2 F2-F1 F1-E1 E1-D1"/>
    </vehicle>
    <vehicle id="t5201" depart="5201.00">
        <route edges="F4-E4 E4-D4 D4-C4 C4-B4 B4-A4 A4-A5 A5-A6 A6-B6"/>
    </vehicle>
    <vehicle id="t5202" depart="5202.00">
        <route edges="E6-F6 F6-F5 F5-F4 F4-E4 E4-D4 D4-C4 C4-C5 C5-D5 D5-D4"/>
    </vehicle>
    <vehicle id="t5203" depart="5203.00">
        <route edges="C2-C3 C3-C4 C4-B4 B4-B3 B3-B2 B2-B1 B1-A1"/>
    </vehicle>
    <vehicle id="t5204" depart="5204.00">
        <route edges="F4-E4 E4-D4 D4-C4 C4-C5 C5-D5"/>
    </vehicle>
    <vehicle id="t5205" depart="5205.00">
        <route edges="F3-F2 F2-E2 E2-E3 E3-E4 E4-D4 D4-C4 C4-B4 B4-B3"/>
    </vehicle>
    <vehicle id="t5206" depart="5206.00">
        <route edges="E3-E4 E4-D4 D4-D3 D3-E3 E3-F3 F3-F2 F2-E2"/>
    </vehicle>
    <vehicle id="t5207" depart="5207.00">
        <route edges="B2-A2 A2-A3 A3-B3 B3-C3 C3-D3 D3-E3 E3-F3 F3-F2 F2-E2 E2-D2"/>
    </vehicle>
    <vehicle id="t5208" depart="5208.00">
        <route edges="C5-D5"/>
    </vehicle>
    <vehicle id="t5209" depart="5209.00">
        <route edges="E4-D4 D4-D3 D3-D2 D2-C2 C2-B2 B2-B1"/>
    </vehicle>
    <vehicle id="t5210" depart="5210.00">
        <route edges="C1-B1 B1-A1 A1-A2 A2-A3 A3-B3 B3-C3 C3-D3 D3-D2 D2-D1 D1-C1"/>
    </vehicle>
    <vehicle id="t5211" depart="5211.00">
        <route edges="B4-A4 A4-A5 A5-B5 B5-B4 B4-B3 B3-C3 C3-D3 D3-D2 D2-D1 D1-C1 C1-B1"/>
    </vehicle>
    <vehicle id="t5212" depart="5212.00">
        <route edges="B5-C5 C5-D5 D5-D4 D4-C4"/>
    </vehicle>
    <vehicle id="t5213" depart="5213.00">
        <route edges="E1-E2 E2-E3 E3-E4 E4-E5 E5-F5 F5-F4"/>
    </vehicle>
    <vehicle id="t5214" depart="5214.00">
        <route edges="D6-E6 E6-F6 F6-F5 F5-F4 F4-E4 E4-D4 D4-D3 D3-D2 D2-D1 D1-C1 C1-B1"/>
    </vehicle>
    <vehicle id="t5215" depart="5215.00">
        <route edges="C2-B2 B2-A2 A2-A3 A3-B3 B3-C3 C3-D3 D3-E3 E3-E4 E4-E5 E5-F5 F5-F4 F4-F3"/>
    </vehicle>
    <vehicle id="t5216" depart="5216.00">
        <route edges="F2-E2 E2-D2 D2-C2"/>
    </vehicle>
    <vehicle id="t5217" depart="5217.00">
        <route edges="D6-E6 E6-F6 F6-F5 F5-F4 F4-E4 E4-D4 D4-C4 C4-B4 B4-B3 B3-C3 C3-D3"/>
    </vehicle>
    <vehicle id="t5218" depart="5218.00">
        <route edges="B1-A1 A1-A2 A2-A3 A3-B3 B3-C3 C3-C4 C4-B4"/>
    </vehicle>
    <vehicle id="t5219" depart="5219.00">
        <route edges="A5-A6 A6-B6 B6-B5 B5-B4 B4-B3 B3-B2 B2-A2"/>
    </vehicle>
    <vehicle id="t5220" depart="5220.00">
        <route edges="A5-B5 B5-C5 C5-D5 D5-D4 D4-D3 D3-E3 E3-F3 F3-F2 F2-F1 F1-E1 E1-D1"/>
    </vehicle>
    <vehicle id="t5221" depart="5221.00">
        <route edges="F4-E4 E4-D4 D4-C4 C4-B4 B4-A4 A4-A5"/>
    </vehicle>
    <vehicle id="t5222" depart="5222.00">
        <route edges="F3-F2 F2-E2 E2-E3 E3-E4 E4-E5 E5-F5 F5-F4 F4-F3"/>
    </vehicle>
    <vehicle id="t5223" depart="5223.00">
        <route edges="F4-E4 E4-D4 D4-D3 D3-D2 D2-C2 C2-B2 B2-A2 A2-A3"/>
    </vehicle>
    <vehicle id="t5224" depart="5224.00">
        <route edges="B4-B3 B3-C3 C3-D3 D3-D2 D2-D1 D1-C1"/>
    </vehicle>
    <vehicle id="t5225" depart="5225.00">
        <route edges="E3-F3 F3-F2 F2-E2 E2-D2 D2-C2 C2-B2 B2-A2 A2-A3"/>
    </vehicle>
    <vehicle id="t5226" depart="5226.00">
        <route edges="F2-F1 F1-E1 E1-E2 E2-E3 E3-E4 E4-D4 D4-C4 C4-B4 B4-A4 A4-A5 A5-A6 A6-B6 B6-B5"/>
    </vehicle>
    <vehicle id="t5227" depart="5227.00">
        <route edges="F2-E2 E2-D2 D2-C2 C2-B2 B2-B1"/>
    </vehicle>
    <vehicle id="t5228" depart="5228.00">
        <route edges="D4-D3 D3-D2 D2-C2 C2-C3 C3-D3"/>
    </vehicle>
    <vehicle id="t5229" depart="5229.00">
        <route edges="C5-C6"/>
    </vehicle>
    <vehicle id="t5230" depart="5230.00">
        <route edges="A4-A5 A5-A6 A6-B6 B6-B5"/>
    </vehicle>
    <vehicle id="t5231" depart="5231.00">
        <route edges="B4-A4 A4-A5 A5-B5 B5-B4 B4-B3 B3-C3 C3-D3 D3-E3 E3-E4 E4-D4"/>
    </vehicle>
    <vehicle id="t5232" depart="5232.00">
        <route edges="D2-C2 C2-C3 C3-C4 C4-C5 C5-C6 C6-D6"/>
    </vehicle>
    <vehicle id="t5233" depart="5233.00">
        <route edges="B2-B1 B1-A1 A1-A2 A2-A3 A3-B3 B3-C3 C3-D3 D3-D2 D2-C2"/>
    </vehicle>
    <vehicle id="t5234" depart="5234.00">
        <route edges="B3-B2 B2-A2 A2-A3 A3-B3 B3-C3 C3-D3 D3-D2 D2-D1 D1-C1 C1-B1"/>