<routes>
	<vehicle depart="0.00" id="t0" type="ivc-replan">
        <route edges="A2-A3 A3-B3 B3-C3 C3-D3 D3-E3 E3-F3 F3-F2 F2-F1 F1-E1 E1-E2" />
    </vehicle>
    <vehicle depart="1.00" id="t1" type="fromFleet">
        <route edges="A4-A5 A5-B5 B5-B4 B4-B3" />
    </vehicle>
    <vehicle depart="2.00" id="t2" type="ivc-noreplan">
        <route edges="F4-F3 F3-F2 F2-E2 E2-E3 E3-E4 E4-D4 D4-C4 C4-B4 B4-B3 B3-C3" />
    </vehicle>
    <vehicle depart="3.00" id="t3" type="ivc-noreplan">
        <route edges="A1-A2 A2-A3 A3-B3 B3-C3 C3-C4 C4-C5 C5-C6 C6-D6" />
    </vehicle>
    <vehicle depart="4.00" id="t4" type="ivc-noreplan">
        <route edges="D5-E5 E5-F5 F5-F4 F4-F3 F3-F2 F2-E2 E2-E3" />
    </vehicle>
    <vehicle depart="5.00" id="t5" type="noivc-noreplan">
        <route edges="D6-E6 E6-F6 F6-F5 F5-F4 F4-E4 E4-D4 D4-C4 C4-B4 B4-A4 A4-A5" />
    </vehicle>
    <vehicle depart="6.00" id="t6" type="ivc-replan">
        <route edges="F4-E4 E4-D4 D4-D3 D3-E3 E3-F3 F3-F2 F2-E2" />
    </vehicle>
    <vehicle depart="7.00" id="t7" type="noivc-noreplan">
        <route edges="C5-C6 C6-D6 D6-D5 D5-D4 D4-C4 C4-C5" />
    </vehicle>
    <vehicle depart="8.00" id="t8" type="fromFleet">
        <route edges="E2-D2 D2-C2 C2-C3 C3-D3 D3-E3 E3-E4 E4-E5" />
    </vehicle>
    <vehicle depart="9.00" id="t9" type="fromFleet">
        <route edges="C1-B1 B1-A1 A1-A2 A2-A3 A3-B3 B3-C3" />
    </vehicle>
    <vehicle depart="10.00" id="t10" type="ivc-replan">
        <route edges="D5-D4 D4-D3 D3-E3 E3-E4" />
    </vehicle>
    <vehicle depart="11.00" id="t11" type="ivc-noreplan">
        <route edges="C3-C4 C4-B4 B4-B3 B3-C3 C3-D3 D3-E3 E3-F3 F3-F2 F2-F1" />
    </vehicle>
    <vehicle depart="12.00" id="t12" type="ivc-noreplan">
        <route edges="A5-B5 B5-B4 B4-B3 B3-B2 B2-B1" />
    </vehicle>
    <vehicle depart="13.00" id="t13" type="ivc-replan">
        <route edges="C5-C6 C6-D6 D6-D5 D5-E5 E5-F5 F5-F4" />
    </vehicle>
    <vehicle depart="14.00" id="t14" type="noivc-noreplan">
        <route edges="B2-B1 B1-A1 A1-A2 A2-A3 A3-B3 B3-C3 C3-D3 D3-E3 E3-E4 E4-D4 D4-C4" />
    </vehicle>
    <vehicle depart="15.00" id="t15" type="fromFleet">
        <route edges="E2-D2" />
    </vehicle>
    <vehicle depart="16.00" id="t16" type="fromFleet">
        <route edges="E3-F3" />
    </vehicle>
    <vehicle depart="17.00" id="t17" type="fromFleet">
        <route edges="E6-F6 F6-F5 F5-F4 F4-F3 F3-F2" />
    </vehicle>
    <vehicle depart="18.00" id="t18" type="fromFleet">
        <route edges="F4-F3 F3-F2 F2-E2 E2-E3 E3-E4 E4-D4 D4-C4 C4-C5 C5-C6" />
    </vehicle>
    <vehicle depart="19.00" id="t19" type="fromFleet">
        <route edges="C5-C6 C6-D6 D6-D5 D5-D4 D4-C4 C4-B4 B4-B3" />
    </vehicle>
    <vehicle depart="20.00" id="t20" type="ivc-noreplan">
        <route edges="B4-B3 B3-C3 C3-D3 D3-E3 E3-F3" />
    </vehicle>
    <vehicle depart="21.00" id="t21" type="ivc-noreplan">
        <route edges="D1-C1 C1-C2 C2-C3 C3-D3 D3-E3 E3-E4 E4-E5 E5-F5 F5-F4 F4-E4" />
    </vehicle>
    <vehicle depart="22.00" id="t22" type="ivc-noreplan">
        <route edges="F3-F2 F2-E2 E2-E3 E3-E4 E4-E5" />
    </vehicle>
    <vehicle depart="23.00" id="t23" type="ivc-noreplan">
        <route edges="C2-B2 B2-A2 A2-A3 A3-B3 B3-C3 C3-D3 D3-E3 E3-E4 E4-E5 E5-F5 F5-F4" />
    </vehicle>
    <vehicle depart="24.00" id="t24" type="ivc-replan">
        <route edges="D4-D3 D3-E3 E3-E4 E4-D4 D4-C4 C4-B4 B4-A4 A4-A5 A5-B5" />
    </vehicle>
    <vehicle depart="25.00" id="t25" type="noivc-noreplan">
        <route edges="C1-C2 C2-C3 C3-C4 C4-B4 B4-B3" />
    </vehicle>
    <vehicle depart="26.00" id="t26" type="fromFleet">
        <route edges="E2-D2 D2-C2 C2-C3 C3-D3 D3-E3 E3-F3 F3-F2 F2-F1" />
    </vehicle>
    <vehicle depart="27.00" id="t27" type="fromFleet">
        <route edges="E4-E5 E5-F5 F5-F4 F4-E4 E4-D4 D4-C4 C4-B4 B4-B3" />
    </vehicle>
    <vehicle depart="28.00" id="t28" type="fromFleet">
        <route edges="D4-C4 C4-B4 B4-B3 B3-C3 C3-D3 D3-D2 D2-C2 C2-C3" />
    </vehicle>
    <vehicle depart="29.00" id="t29" type="fromFleet">
        <route edges="E2-D2 D2-C2 C2-C3 C3-C4 C4-B4 B4-A4 A4-A5 A5-A6 A6-B6 B6-C6" />
    </vehicle>
    <vehicle depart="30.00" id="t30" type="ivc-noreplan">
        <route edges="F4-F3 F3-F2 F2-E2 E2-E3 E3-E4 E4-D4 D4-C4 C4-C5" />
    </vehicle>
    <vehicle depart="31.00" id="t31" type="ivc-replan">
        <route edges="E4-D4 D4-C4 C4-C5 C5-C6 C6-D6" />
    </vehicle>
    <vehicle depart="32.00" id="t32" type="fromFleet">
        <route edges="B5-C5 C5-D5 D5-D4 D4-D3 D3-E3 E3-E4 E4-E5" />
    </vehicle>
    <vehicle depart="33.00" id="t33" type="noivc-noreplan">
        <route edges="A3-A4 A4-A5 A5-B5 B5-B4 B4-B3 B3-B2" />
    </vehicle>
    <vehicle depart="34.00" id="t34" type="fromFleet">
        <route edges="E2-D2 D2-C2 C2-C3 C3-D3 D3-E3 E3-E4 E4-E5 E5-E6 E6-F6" />
    </vehicle>
    <vehicle depart="35.00" id="t35" type="fromFleet">
        <route edges="B6-B5 B5-B4 B4-A4 A4-A5 A5-A6" />
    </vehicle>
    <vehicle depart="36.00" id="t36" type="fromFleet">
        <route edges="C5-D5 D5-D4 D4-D3 D3-E3 E3-F3" />
    </vehicle>
    <vehicle depart="37.00" id="t37" type="noivc-noreplan">
        <route edges="F4-F3 F3-F2 F2-E2 E2-E3 E3-E4 E4-D4 D4-C4" />
    </vehicle>
    <vehicle depart="38.00" id="t38" type="ivc-noreplan">
        <route edges="A1-A2 A2-A3 A3-A4 A4-A5 A5-B5 B5-C5" />
    </vehicle>
    <vehicle depart="39.00" id="t39" type="noivc-replan">
        <route edges="B4-A4 A4-A5 A5-B5 B5-B4 B4-B3 B3-C3 C3-D3 D3-D2 D2-C2" />
    </vehicle>
    <vehicle depart="40.00" id="t40" type="fromFleet">
        <route edges="F3-F2 F2-E2 E2-E3 E3-E4 E4-D4 D4-C4 C4-B4 B4-B3 B3-B2" />
    </vehicle>
    <vehicle depart="41.00" id="t41" type="ivc-noreplan">
        <route edges="A4-A5 A5-B5 B5-B4 B4-B3" />
    </vehicle>
    <vehicle depart="42.00" id="t42" type="ivc-noreplan">
        <route edges="B5-C5 C5-D5 D5-E5 E5-F5 F5-F4 F4-E4" />
    </vehicle>
    <vehicle depart="43.00" id="t43" type="fromFleet">
        <route edges="A2-A3 A3-B3 B3-B2 B2-A2" />
    </vehicle>
    <vehicle depart="44.00" id="t44" type="ivc-replan">
        <route edges="C4-B4 B4-B3 B3-C3 C3-D3 D3-E3 E3-F3 F3-F2" />
    </vehicle>
    <vehicle depart="45.00" id="t45" type="ivc-noreplan">
        <route edges="D2-C2 C2-B2 B2-A2" />
    </vehicle>
    <vehicle depart="46.00" id="t46" type="ivc-noreplan">
        <route edges="C6-D6 D6-D5 D5-D4 D4-D3" />
    </vehicle>
    <vehicle depart="47.00" id="t47" type="fromFleet">
        <route edges="E5-E6 E6-F6 F6-F5 F5-F4 F4-F3 F3-F2" />
    </vehicle>
    <vehicle depart="48.00" id="t48" type="fromFleet">
        <route edges="E1-D1 D1-C1 C1-C2 C2-C3 C3-D3 D3-E3 E3-F3" />
    </vehicle>
    <vehicle depart="49.00" id="t49" type="ivc-noreplan">
        <route edges="A2-A3 A3-B3 B3-C3 C3-D3 D3-E3 E3-E4 E4-E5 E5-F5" />
    </vehicle>
    <vehicle depart="50.00" id="t50" type="ivc-noreplan">
        <route edges="F2-E2 E2-D2 D2-C2 C2-B2 B2-A2 A2-A3 A3-A4" />
    </vehicle>
    <vehicle depart="51.00" id="t51" type="fromFleet">
        <route edges="F1-E1 E1-E2 E2-E3 E3-E4 E4-D4 D4-C4 C4-C5 C5-D5 D5-E5" />
    </vehicle>
    <vehicle depart="52.00" id="t52" type="fromFleet">
        <route edges="D3-D2 D2-C2 C2-C3 C3-D3 D3-E3 E3-E4 E4-D4 D4-C4" />
    </vehicle>
    <vehicle depart="53.00" id="t53" type="ivc-noreplan">
        <route edges="C5-D5 D5-E5 E5-F5 F5-F4" />
    </vehicle>
    <vehicle depart="54.00" id="t54" type="ivc-replan">
        <route edges="B2-B1 B1-A1 A1-A2 A2-A3 A3-B3 B3-C3 C3-D3 D3-D2 D2-D1 D1-C1" />
    </vehicle>
    <vehicle depart="55.00" id="t55" type="fromFleet">
        <route edges="A3-B3 B3-B2 B2-B1 B1-A1" />
    </vehicle>
    <vehicle depart="56.00" id="t56" type="fromFleet">
        <route edges="E2-E3 E3-E4 E4-D4 D4-C4 C4-C5 C5-D5" />
    </vehicle>
    <vehicle depart="57.00" id="t57" type="noivc-replan">
        <route edges="E2-D2 D2-C2 C2-C3 C3-D3 D3-E3 E3-F3 F3-F2" />
    </vehicle>
    <vehicle depart="58.00" id="t58" type="fromFleet">
        <route edges="A3-B3 B3-C3 C3-D3 D3-D2 D2-D1 D1-C1 C1-C2" />
    </vehicle>
    <vehicle depart="59.00" id="t59" type="ivc-noreplan">
        <route edges="E5-F5 F5-F4 F4-E4 E4-D4 D4-D3 D3-D2 D2-D1 D1-C1" />
    </vehicle>
    <vehicle depart="60.00" id="t60" type="ivc-noreplan">
        <route edges="A6-B6 B6-B5 B5-C5 C5-D5" />
    </vehicle>
    <vehicle depart="61.00" id="t61" type="fromFleet">
        <route edges="C6-D6 D6-D5 D5-D4 D4-C4 C4-B4 B4-B3 B3-B2 B2-B1" />
    </vehicle>
    <vehicle depart="62.00" id="t62" type="ivc-noreplan">
        <route edges="A1-A2 A2-A3 A3-A4 A4-A5 A5-A6 A6-B6 B6-B5" />
    </vehicle>
    <vehicle depart="63.00" id="t63" type="ivc-noreplan">
        <route edges="D6-D5 D5-D4 D4-D3 D3-E3 E3-F3 F3-F2 F2-F1 F1-E1 E1-D1" />
    </vehicle>
    <vehicle depart="64.00" id="t64" type="fromFleet">
        <route edges="E6-F6 F6-F5 F5-F4 F4-E4 E4-D4 D4-C4 C4-B4 B4-B3 B3-B2 B2-A2 A2-A3" />
    </vehicle>
    <vehicle depart="65.00" id="t65" type="fromFleet">
        <route edges="E5-E6 E6-F6 F6-F5 F5-F4 F4-E4 E4-D4 D4-C4" />
    </vehicle>
    <vehicle depart="66.00" id="t66" type="fromFleet">
        <route edges="E6-F6 F6-F5 F5-F4 F4-F3 F3-F2 F2-F1" />
    </vehicle>
    <vehicle depart="67.00" id="t67" type="noivc-noreplan">
        <route edges="D2-C2 C2-B2 B2-A2 A2-A3 A3-B3" />
    </vehicle>
    <vehicle depart="68.00" id="t68" type="ivc-noreplan">
        <route edges="A4-A5 A5-B5 B5-B4 B4-B3 B3-B2 B2-A2 A2-A3" />
    </vehicle>
    <vehicle depart="69.00" id="t69" type="noivc-noreplan">
        <route edges="D4-D3 D3-E3" />
    </vehicle>
    <vehicle depart="70.00" id="t70" type="fromFleet">
        <route edges="D5-D4 D4-C4 C4-B4 B4-A4 A4-A5 A5-B5 B5-B4" />
    </vehicle>
    <vehicle depart="71.00" id="t71" type="ivc-replan">
        <route edges="D2-C2 C2-C3 C3-D3 D3-E3 E3-F3 F3-F2 F2-E2" />
    </vehicle>
    <vehicle depart="72.00" id="t72" type="fromFleet">
        <route edges="F2-F1 F1-E1 E1-E2 E2-D2 D2-C2 C2-C3" />
    </vehicle>
    <vehicle depart="73.00" id="t73" type="fromFleet">
        <route edges="F6-F5 F5-F4 F4-E4 E4-D4 D4-C4 C4-B4 B4-B3 B3-B2" />
    </vehicle>
    <vehicle depart="74.00" id="t74" type="noivc-noreplan">
        <route edges="D6-D5 D5-D4 D4-C4 C4-B4 B4-B3 B3-B2 B2-A2 A2-A3 A3-B3" />
    </vehicle>
    <vehicle depart="75.00" id="t75" type="ivc-noreplan">
        <route edges="D6-D5 D5-D4 D4-C4 C4-B4 B4-B3 B3-B2" />
    </vehicle>
    <vehicle depart="76.00" id="t76" type="ivc-noreplan">
        <route edges="C2-B2 B2-A2 A2-A3 A3-B3 B3-C3 C3-D3 D3-E3 E3-F3 F3-F2" />
    </vehicle>
    <vehicle depart="77.00" id="t77" type="noivc-noreplan">
        <route edges="E5-F5 F5-F4 F4-E4 E4-E5 E5-E6 E6-F6" />
    </vehicle>
    <vehicle depart="78.00" id="t78" type="ivc-noreplan">
        <route edges="A1-A2 A2-A3 A3-B3 B3-C3 C3-D3 D3-E3 E3-E4 E4-E5 E5-F5 F5-F4 F4-E4" />
    </vehicle>
    <vehicle depart="79.00" id="t79" type="ivc-noreplan">
        <route edges="C2-C3 C3-C4 C4-B4 B4-A4 A4-A5 A5-A6 A6-B6" />
    </vehicle>
    <vehicle depart="80.00" id="t80" type="ivc-noreplan">
        <route edges="E4-D4 D4-D3 D3-D2 D2-D1 D1-C1" />
    </vehicle>
    <vehicle depart="81.00" id="t81" type="fromFleet">
        <route edges="D3-E3 E3-F3 F3-F2 F2-F1 F1-E1 E1-D1" />
    </vehicle>
    <vehicle depart="82.00" id="t82" type="noivc-replan">
        <route edges="D3-D2 D2-C2 C2-C3 C3-D3 D3-E3 E3-E4 E4-E5 E5-F5 F5-F4" />
    </vehicle>
    <vehicle depart="83.00" id="t83" type="ivc-noreplan">
        <route edges="D3-D2 D2-C2 C2-B2 B2-A2 A2-A3" />
    </vehicle>
    <vehicle depart="84.00" id="t84" type="ivc-replan">
        <route edges="A3-A4 A4-A5 A5-B5 B5-C5 C5-C6 C6-D6" />
    </vehicle>
    <vehicle depart="85.00" id="t85" type="fromFleet">
        <route edges="F4-E4 E4-D4 D4-C4 C4-C5 C5-D5 D5-D4" />
    </vehicle>
    <vehicle depart="86.00" id="t86" type="ivc-noreplan">
        <route edges="E6-F6 F6-F5 F5-F4 F4-E4 E4-D4 D4-C4 C4-B4 B4-B3 B3-B2 B2-A2 A2-A3 A3-B3" />
    </vehicle>
    <vehicle depart="87.00" id="t87" type="ivc-replan">
        <route edges="C2-C3 C3-D3 D3-D2 D2-D1 D1-C1 C1-B1" />
    </vehicle>
    <vehicle depart="88.00" id="t88" type="fromFleet">
        <route edges="A6-B6 B6-B5 B5-B4 B4-B3 B3-C3 C3-C4 C4-B4" />
    </vehicle>
    <vehicle depart="89.00" id="t89" type="fromFleet">
        <route edges="A3-B3 B3-C3 C3-C4 C4-B4 B4-A4 A4-A5 A5-A6 A6-B6 B6-B5" />
    </vehicle>
    <vehicle depart="90.00" id="t90" type="ivc-noreplan">
        <route edges="F2-E2 E2-D2 D2-D1 D1-C1 C1-B1" />
    </vehicle>
    <vehicle depart="91.00" id="t91" type="ivc-noreplan">
        <route edges="E4-D4 D4-C4" />
    </vehicle>
    <vehicle depart="92.00" id="t92" type="noivc-noreplan">
        <route edges="C1-B1 B1-A1 A1-A2 A2-A3 A3-B3 B3-C3 C3-D3 D3-E3 E3-F3 F3-F2 F2-E2" />
    </vehicle>
    <vehicle depart="93.00" id="t93" type="noivc-noreplan">
        <route edges="D4-C4 C4-B4 B4-A4 A4-A5 A5-A6 A6-B6 B6-B5" />
    </vehicle>
    <vehicle depart="94.00" id="t94" type="ivc-noreplan">
        <route edges="A5-B5 B5-C5 C5-D5 D5-D4 D4-D3 D3-E3 E3-F3 F3-F2 F2-E2 E2-D2" />
    </vehicle>
    <vehicle depart="95.00" id="t95" type="noivc-noreplan">
        <route edges="A3-B3 B3-B2 B2-A2 A2-A3" />
    </vehicle>
    <vehicle depart="96.00" id="t96" type="ivc-noreplan">
        <route edges="E5-F5 F5-F4 F4-E4 E4-D4 D4-C4 C4-B4 B4-B3 B3-B2 B2-A2 A2-A3 A3-B3" />
    </vehicle>
    <vehicle depart="97.00" id="t97" type="fromFleet">
        <route edges="E5-E6 E6-F6 F6-F5 F5-F4 F4-E4 E4-D4 D4-C4 C4-B4 B4-A4 A4-A5 A5-B5 B5-C5" />
    </vehicle>
    <vehicle depart="98.00" id="t98" type="noivc-noreplan">
        <route edges="D3-E3 E3-E4 E4-D4 D4-C4" />
    </vehicle>
    <vehicle depart="99.00" id="t99" type="noivc-noreplan">
        <route edges="F2-E2 E2-E3 E3-E4 E4-D4 D4-C4 C4-C5" />
    </vehicle>
    <vehicle depart="100.00" id="t100" type="fromFleet">
        <route edges="A4-A5 A5-B5 B5-B4 B4-B3 B3-B2 B2-A2 A2-A3 A3-B3" />
    </vehicle>
    <vehicle depart="101.00" id="t101" type="ivc-noreplan">
        <route edges="D4-D3 D3-D2 D2-C2 C2-B2" />
    </vehicle>
    <vehicle depart="102.00" id="t102" type="fromFleet">
        <route edges="F6-F5 F5-F4 F4-E4 E4-D4 D4-C4 C4-B4 B4-B3 B3-B2" />
    </vehicle>
    <vehicle depart="103.00" id="t103" type="ivc-noreplan">
        <route edges="E4-D4 D4-D3 D3-E3 E3-F3 F3-F2 F2-E2" />
    </vehicle>
    <vehicle depart="104.00" id="t104" type="fromFleet">
        <route edges="B4-A4 A4-A5 A5-B5 B5-B4 B4-B3 B3-C3 C3-C4" />
    </vehicle>
    <vehicle depart="105.00" id="t105" type="fromFleet">
        <route edges="F4-E4 E4-D4 D4-C4 C4-B4 B4-A4 A4-A5 A5-A6 A6-B6 B6-C6" />
    </vehicle>
    <vehicle depart="106.00" id="t106" type="fromFleet">
        <route edges="A1-A2 A2-A3 A3-B3 B3-C3 C3-D3 D3-E3 E3-F3 F3-F2" />
    </vehicle>
    <vehicle depart="107.00" id="t107" type="ivc-replan">
        <route edges="C6-D6 D6-D5 D5-D4 D4-C4 C4-B4" />
    </vehicle>
    <vehicle depart="108.00" id="t108" type="noivc-noreplan">
        <route edges="C2-B2 B2-A2 A2-A3 A3-B3 B3-C3 C3-D3 D3-E3 E3-F3 F3-F2 F2-E2 E2-E3" />
    </vehicle>
    <vehicle depart="109.00" id="t109" type="fromFleet">
        <route edges="D5-D4 D4-C4 C4-C5" />
    </vehicle>
    <vehicle depart="110.00" id="t110" type="ivc-noreplan">
        <route edges="B3-C3 C3-D3 D3-E3 E3-F3 F3-F2 F2-E2 E2-E3" />
    </vehicle>
    <vehicle depart="111.00" id="t111" type="fromFleet">
        <route edges="F6-F5 F5-F4 F4-E4 E4-D4 D4-D3 D3-E3 E3-F3" />
    </vehicle>
    <vehicle depart="112.00" id="t112" type="fromFleet">
        <route edges="B1-A1 A1-A2 A2-A3 A3-B3 B3-C3 C3-C4 C4-B4 B4-B3" />
    </vehicle>
    <vehicle depart="113.00" id="t113" type="noivc-noreplan">
        <route edges="C5-C6 C6-D6 D6-D5 D5-D4 D4-D3 D3-D2 D2-D1 D1-C1" />
    </vehicle>
    <vehicle depart="114.00" id="t114" type="ivc-noreplan">
        <route edges="C6-D6" />
    </vehicle>
    <vehicle depart="115.00" id="t115" type="fromFleet">
        <route edges="D3-E3 E3-E4 E4-D4 D4-D3 D3-D2 D2-C2 C2-C3" />
    </vehicle>
    <vehicle depart="116.00" id="t116" type="noivc-noreplan">
        <route edges="A1-A2 A2-A3 A3-B3 B3-C3 C3-D3 D3-D2 D2-D1" />
    </vehicle>
    <vehicle depart="117.00" id="t117" type="fromFleet">
        <route edges="F4-F3 F3-F2 F2-E2 E2-E3 E3-E4 E4-D4 D4-C4 C4-C5 C5-C6 C6-D6 D6-E6" />
    </vehicle>
    <vehicle depart="118.00" id="t118" type="ivc-noreplan">
        <route edges="A2-A3" />
    </vehicle>
    <vehicle depart="119.00" id="t119" type="fromFleet">
        <route edges="B1-A1 A1-A2 A2-A3 A3-B3 B3-C3 C3-C4 C4-C5 C5-C6 C6-D6" />
    </vehicle>
    <vehicle depart="120.00" id="t120" type="noivc-noreplan">
        <route edges="C3-C4 C4-B4 B4-B3 B3-B2 B2-B1 B1-A1" />
    </vehicle>
    <vehicle depart="121.00" id="t121" type="fromFleet">
        <route edges="E4-E5 E5-F5 F5-F4 F4-E4 E4-D4 D4-C4 C4-B4 B4-B3 B3-C3 C3-C4" />
    </vehicle>
    <vehicle depart="122.00" id="t122" type="ivc-noreplan">
        <route edges="E2-E3 E3-E4 E4-D4 D4-D3 D3-D2 D2-D1 D1-C1 C1-B1" />
    </vehicle>
    <vehicle depart="123.00" id="t123" type="fromFleet">
        <route edges="B2-B1 B1-A1 A1-A2 A2-A3 A3-B3 B3-C3 C3-D3 D3-E3 E3-E4 E4-D4" />
    </vehicle>
    <vehicle depart="124.00" id="t124" type="ivc-noreplan">
        <route edges="A1-A2 A2-A3 A3-B3 B3-C3 C3-C4 C4-B4 B4-B3" />
    </vehicle>
    <vehicle depart="125.00" id="t125" type="fromFleet">
        <route edges="C5-C6 C6-D6 D6-D5 D5-D4 D4-C4 C4-B4 B4-A4 A4-A5 A5-B5" />
    </vehicle>
    <vehicle depart="126.00" id="t126" type="noivc-noreplan">
        <route edges="E3-E4 E4-D4 D4-C4 C4-B4 B4-B3 B3-B2 B2-A2 A2-A3" />
    </vehicle>
    <vehicle depart="127.00" id="t127" type="fromFleet">
        <route edges="E2-E3 E3-E4 E4-D4 D4-C4 C4-B4 B4-B3 B3-C3 C3-C4" />
    </vehicle>
    <vehicle depart="128.00" id="t128" type="fromFleet">
        <route edges="E5-E6 E6-F6 F6-F5 F5-F4 F4-E4 E4-D4 D4-C4 C4-B4 B4-B3 B3-B2 B2-B1 B1-A1" />
    </vehicle>
    <vehicle depart="129.00" id="t129" type="ivc-noreplan">
        <route edges="E3-E4 E4-D4 D4-C4 C4-B4 B4-A4 A4-A5 A5-B5 B5-B4" />
    </vehicle>
    <vehicle depart="130.00" id="t130" type="ivc-noreplan">
        <route edges="E5-F5 F5-F4 F4-F3 F3-F2" />
    </vehicle>
    <vehicle depart="131.00" id="t131" type="fromFleet">
        <route edges="A5-B5 B5-C5 C5-D5 D5-D4 D4-C4" />
    </vehicle>
    <vehicle depart="132.00" id="t132" type="noivc-noreplan">
        <route edges="D6-D5 D5-D4 D4-D3 D3-E3 E3-F3 F3-F2 F2-E2 E2-D2" />
    </vehicle>
    <vehicle depart="133.00" id="t133" type="noivc-noreplan">
        <route edges="C6-D6 D6-D5 D5-D4 D4-D3 D3-E3 E3-F3 F3-F2 F2-E2" />
    </vehicle>
    <vehicle depart="134.00" id="t134" type="fromFleet">
        <route edges="B3-B2 B2-A2 A2-A3 A3-B3 B3-C3 C3-C4 C4-B4 B4-A4" />
    </vehicle>
    <vehicle depart="135.00" id="t135" type="noivc-noreplan">
        <route edges="B5-C5 C5-D5 D5-D4 D4-D3 D3-D2 D2-D1 D1-C1" />
    </vehicle>
    <vehicle depart="136.00" id="t136" type="noivc-noreplan">
        <route edges="C1-B1 B1-A1 A1-A2 A2-A3 A3-B3 B3-C3 C3-D3 D3-E3" />
    </vehicle>
    <vehicle depart="137.00" id="t137" type="fromFleet">
        <route edges="C6-D6 D6-D5 D5-D4 D4-D3 D3-E3 E3-F3 F3-F2 F2-F1 F1-E1 E1-D1" />
    </vehicle>
    <vehicle depart="138.00" id="t138" type="fromFleet">
        <route edges="D2-C2 C2-C3 C3-C4 C4-C5 C5-D5 D5-E5" />
    </vehicle>
    <vehicle depart="139.00" id="t139" type="ivc-noreplan">
        <route edges="C1-C2 C2-C3 C3-D3 D3-E3 E3-E4 E4-D4" />
    </vehicle>
    <vehicle depart="140.00" id="t140" type="fromFleet">
        <route edges="C5-D5 D5-D4 D4-D3 D3-E3 E3-E4 E4-E5" />
    </vehicle>
    <vehicle depart="141.00" id="t141" type="ivc-noreplan">
        <route edges="D4-C4 C4-B4 B4-A4 A4-A5 A5-A6 A6-B6 B6-C6" />
    </vehicle>
    <vehicle depart="142.00" id="t142" type="ivc-noreplan">
        <route edges="D3-E3 E3-E4 E4-D4 D4-C4 C4-B4 B4-A4 A4-A5 A5-A6 A6-B6 B6-B5" />
    </vehicle>
    <vehicle depart="143.00" id="t143" type="fromFleet">
        <route edges="A5-B5 B5-C5" />
    </vehicle>
    <vehicle depart="144.00" id="t144" type="ivc-noreplan">
        <route edges="B5-C5 C5-D5 D5-D4 D4-D3 D3-D2" />
    </vehicle>
    <vehicle depart="145.00" id="t145" type="noivc-noreplan">
        <route edges="E1-D1 D1-C1 C1-C2 C2-C3 C3-D3 D3-D2 D2-D1" />
    </vehicle>
    <vehicle depart="146.00" id="t146" type="noivc-noreplan">
        <route edges="B4-A4 A4-A5 A5-B5 B5-B4 B4-B3 B3-C3 C3-D3 D3-E3 E3-F3 F3-F2" />
    </vehicle>
    <vehicle depart="147.00" id="t147" type="fromFleet">
        <route edges="D5-E5 E5-F5 F5-F4 F4-E4 E4-D4 D4-C4 C4-B4 B4-A4 A4-A5 A5-B5 B5-C5" />
    </vehicle>
    <vehicle depart="148.00" id="t148" type="ivc-noreplan">
        <route edges="D5-D4 D4-C4 C4-B4 B4-A4 A4-A5 A5-A6" />
    </vehicle>
    <vehicle depart="149.00" id="t149" type="ivc-noreplan">
        <route edges="E2-E3 E3-E4 E4-D4 D4-C4 C4-C5 C5-C6 C6-D6 D6-D5" />
    </vehicle>
    <vehicle depart="150.00" id="t150" type="noivc-noreplan">
        <route edges="F3-F2 F2-E2 E2-E3 E3-E4 E4-D4 D4-C4 C4-B4 B4-A4 A4-A5 A5-B5 B5-C5" />
    </vehicle>
    <vehicle depart="151.00" id="t151" type="ivc-noreplan">
        <route edges="A3-B3 B3-C3 C3-D3 D3-D2 D2-D1" />
    </vehicle>
    <vehicle depart="152.00" id="t152" type="fromFleet">
        <route edges="A2-A3 A3-B3 B3-C3 C3-C4 C4-C5 C5-C6 C6-D6" />
    </vehicle>
    <vehicle depart="153.00" id="t153" type="fromFleet">
        <route edges="E4-D4 D4-C4 C4-B4 B4-A4" />
    </vehicle>
    <vehicle depart="154.00" id="t154" type="ivc-replan">
        <route edges="D6-D5 D5-D4 D4-C4 C4-B4 B4-B3 B3-B2 B2-B1" />
    </vehicle>
    <vehicle depart="155.00" id="t155" type="ivc-noreplan">
        <route edges="D6-E6 E6-F6 F6-F5 F5-F4 F4-E4 E4-D4 D4-C4 C4-B4 B4-B3 B3-B2 B2-B1" />
    </vehicle>
    <vehicle depart="156.00" id="t156" type="fromFleet">
        <route edges="A1-A2 A2-A3 A3-A4 A4-A5" />
    </vehicle>
    <vehicle depart="157.00" id="t157" type="ivc-noreplan">
        <route edges="E1-E2 E2-E3 E3-E4 E4-E5 E5-F5 F5-F4 F4-E4" />
    </vehicle>
    <vehicle depart="158.00" id="t158" type="ivc-replan">
        <route edges="F5-F4 F4-E4 E4-D4 D4-C4 C4-B4 B4-A4" />
    </vehicle>
    <vehicle depart="159.00" id="t159" type="ivc-noreplan">
        <route edges="B6-B5 B5-B4 B4-A4 A4-A5 A5-A6 A6-B6" />
    </vehicle>
    <vehicle depart="160.00" id="t160" type="noivc-replan">
        <route edges="D6-D5 D5-D4 D4-D3 D3-D2 D2-C2" />
    </vehicle>
    <vehicle depart="161.00" id="t161" type="fromFleet">
        <route edges="E5-F5 F5-F4 F4-E4 E4-D4 D4-C4 C4-C5 C5-D5 D5-E5" />
    </vehicle>
    <vehicle depart="162.00" id="t162" type="noivc-noreplan">
        <route edges="B2-A2 A2-A3 A3-B3 B3-C3 C3-D3 D3-E3 E3-E4 E4-D4" />
    </vehicle>
    <vehicle depart="163.00" id="t163" type="ivc-replan">
        <route edges="D3-E3 E3-E4 E4-D4 D4-D3 D3-D2 D2-C2 C2-C3" />
    </vehicle>
    <vehicle depart="164.00" id="t164" type="noivc-noreplan">
        <route edges="F2-F1 F1-E1 E1-E2 E2-E3 E3-F3 F3-F2" />
    </vehicle>
    <vehicle depart="165.00" id="t165" type="ivc-noreplan">
        <route edges="E5-E6 E6-F6 F6-F5 F5-F4 F4-E4 E4-D4 D4-C4 C4-B4 B4-B3 B3-B2 B2-A2 A2-A3 A3-A4" />
    </vehicle>
    <vehicle depart="166.00" id="t166" type="fromFleet">
        <route edges="D2-D1 D1-C1 C1-C2 C2-C3 C3-C4 C4-B4 B4-A4 A4-A5 A5-A6 A6-B6" />
    </vehicle>
    <vehicle depart="167.00" id="t167" type="fromFleet">
        <route edges="C2-B2 B2-A2 A2-A3 A3-B3 B3-B2" />
    </vehicle>
    <vehicle depart="168.00" id="t168" type="noivc-noreplan">
        <route edges="B3-C3 C3-D3 D3-E3 E3-F3 F3-F2 F2-E2 E2-D2" />
    </vehicle>
    <vehicle depart="169.00" id="t169" type="fromFleet">
        <route edges="C1-B1 B1-A1 A1-A2 A2-A3 A3-B3 B3-C3 C3-C4 C4-C5 C5-D5" />
    </vehicle>
    <vehicle depart="170.00" id="t170" type="noivc-noreplan">
        <route edges="C3-C4 C4-B4 B4-B3 B3-C3 C3-D3 D3-E3 E3-F3 F3-F2 F2-F1 F1-E1 E1-E2" />
    </vehicle>
    <vehicle depart="171.00" id="t171" type="ivc-noreplan">
        <route edges="A2-A3 A3-B3 B3-C3" />
    </vehicle>
    <vehicle depart="172.00" id="t172" type="ivc-noreplan">
        <route edges="F4-E4 E4-D4 D4-D3 D3-E3 E3-F3 F3-F2 F2-F1 F1-E1 E1-E2" />
    </vehicle>
    <vehicle depart="173.00" id="t173" type="noivc-replan">
        <route edges="E2-D2 D2-C2 C2-C3 C3-C4 C4-C5 C5-C6 C6-D6 D6-E6" />
    </vehicle>
    <vehicle depart="174.00" id="t174" type="ivc-noreplan">
        <route edges="D2-D1 D1-C1 C1-C2 C2-C3 C3-C4 C4-B4 B4-A4 A4-A5" />
    </vehicle>
    <vehicle depart="175.00" id="t175" type="ivc-noreplan">
        <route edges="D3-E3 E3-E4 E4-D4 D4-D3 D3-D2 D2-C2 C2-B2" />
    </vehicle>
    <vehicle depart="176.00" id="t176" type="ivc-noreplan">
        <route edges="D6-D5 D5-D4 D4-C4 C4-B4 B4-A4 A4-A5 A5-B5" />
    </vehicle>
    <vehicle depart="177.00" id="t177" type="fromFleet">
        <route edges="C3-D3 D3-E3" />
    </vehicle>
    <vehicle depart="178.00" id="t178" type="noivc-noreplan">
        <route edges="D2-D1 D1-C1 C1-C2 C2-C3 C3-D3 D3-E3 E3-E4 E4-E5 E5-F5 F5-F4 F4-E4" />
    </vehicle>
    <vehicle depart="179.00" id="t179" type="ivc-replan">
        <route edges="C2-B2 B2-A2 A2-A3 A3-B3" />
    </vehicle>
    <vehicle depart="180.00" id="t180" type="fromFleet">
        <route edges="C4-B4 B4-B3 B3-B2 B2-A2 A2-A3 A3-B3" />
    </vehicle>
    <vehicle depart="181.00" id="t181" type="ivc-noreplan">
        <route edges="A4-A5 A5-B5 B5-B4 B4-B3 B3-C3 C3-D3 D3-E3 E3-F3 F3-F2 F2-E2" />
    </vehicle>
    <vehicle depart="182.00" id="t182" type="noivc-noreplan">
        <route edges="C5-C6 C6-D6" />
    </vehicle>
    <vehicle depart="183.00" id="t183" type="ivc-noreplan">
        <route edges="C4-C5" />
    </vehicle>
    <vehicle depart="184.00" id="t184" type="ivc-noreplan">
        <route edges="E3-F3 F3-F2 F2-E2 E2-E3 E3-E4 E4-D4 D4-C4 C4-B4 B4-A4 A4-A5 A5-A6 A6-B6 B6-C6" />
    </vehicle>
    <vehicle depart="185.00" id="t185" type="ivc-noreplan">
        <route edges="D2-C2 C2-C3 C3-C4 C4-B4 B4-B3 B3-C3" />
    </vehicle>
    <vehicle depart="186.00" id="t186" type="fromFleet">
        <route edges="C4-C5 C5-D5 D5-D4 D4-C4 C4-B4 B4-A4 A4-A5 A5-A6 A6-B6 B6-C6" />
    </vehicle>
    <vehicle depart="187.00" id="t187" type="fromFleet">
        <route edges="F3-F2 F2-E2 E2-E3 E3-E4 E4-E5 E5-F5 F5-F4 F4-E4" />
    </vehicle>
    <vehicle depart="188.00" id="t188" type="noivc-noreplan">
        <route edges="F4-E4 E4-D4 D4-D3 D3-D2 D2-C2 C2-B2 B2-A2 A2-A3" />
    </vehicle>
    <vehicle depart="189.00" id="t189" type="ivc-noreplan">
        <route edges="D5-E5 E5-F5 F5-F4 F4-E4" />
    </vehicle>
    <vehicle depart="190.00" id="t190" type="noivc-noreplan">
        <route edges="E4-E5 E5-F5 F5-F4 F4-E4 E4-D4 D4-C4 C4-B4 B4-B3 B3-B2 B2-A2" />
    </vehicle>
    <vehicle depart="191.00" id="t191" type="fromFleet">
        <route edges="A3-B3 B3-C3 C3-C4 C4-C5" />
    </vehicle>
    <vehicle depart="192.00" id="t192" type="noivc-noreplan">
        <route edges="D4-C4 C4-C5 C5-D5 D5-E5 E5-F5 F5-F4" />
    </vehicle>
    <vehicle depart="193.00" id="t193" type="ivc-noreplan">
        <route edges="D5-E5 E5-F5 F5-F4 F4-E4 E4-D4 D4-D3 D3-D2 D2-D1 D1-C1" />
    </vehicle>
    <vehicle depart="194.00" id="t194" type="ivc-noreplan">
        <route edges="C3-C4 C4-C5" />
    </vehicle>
    <vehicle depart="195.00" id="t195" type="ivc-noreplan">
        <route edges="E5-F5 F5-F4 F4-F3 F3-F2 F2-F1 F1-E1 E1-E2" />
    </vehicle>
    <vehicle depart="196.00" id="t196" type="fromFleet">
        <route edges="E6-F6 F6-F5 F5-F4 F4-F3 F3-F2" />
    </vehicle>
    <vehicle depart="197.00" id="t197" type="noivc-noreplan">
        <route edges="C5-C6 C6-D6 D6-D5 D5-D4 D4-C4 C4-C5" />
    </vehicle>
    <vehicle depart="198.00" id="t198" type="ivc-noreplan">
        <route edges="E2-D2 D2-C2 C2-C3 C3-C4 C4-B4 B4-A4 A4-A5 A5-B5 B5-B4" />
    </vehicle>
    <vehicle depart="199.00" id="t199" type="ivc-noreplan">
        <route edges="C4-B4 B4-B3 B3-C3 C3-D3 D3-E3 E3-F3 F3-F2 F2-E2 E2-D2" />
    </vehicle>
    <vehicle depart="200.00" id="t200" type="fromFleet">
        <route edges="A3-B3 B3-C3 C3-C4 C4-C5 C5-D5" />
    </vehicle>
    <vehicle depart="201.00" id="t201" type="ivc-noreplan">
        <route edges="D4-C4 C4-C5 C5-D5 D5-E5" />
    </vehicle>
    <vehicle depart="202.00" id="t202" type="fromFleet">
        <route edges="B1-A1 A1-A2 A2-A3 A3-A4 A4-A5 A5-A6 A6-B6" />
    </vehicle>
    <vehicle depart="203.00" id="t203" type="noivc-noreplan">
        <route edges="F2-E2 E2-E3 E3-E4 E4-D4 D4-C4 C4-B4 B4-A4 A4-A5 A5-A6 A6-B6 B6-C6" />
    </vehicle>
    <vehicle depart="204.00" id="t204" type="ivc-noreplan">
        <route edges="E5-F5 F5-F4 F4-E4 E4-D4 D4-C4 C4-B4 B4-B3 B3-B2 B2-A2 A2-A3 A3-B3" />
    </vehicle>
    <vehicle depart="205.00" id="t205" type="ivc-noreplan">
        <route edges="C5-C6 C6-D6 D6-D5 D5-D4 D4-D3 D3-D2 D2-D1" />
    </vehicle>
    <vehicle depart="206.00" id="t206" type="ivc-noreplan">
        <route edges="E2-E3 E3-E4 E4-D4 D4-C4 C4-B4 B4-B3 B3-B2" />
    </vehicle>
    <vehicle depart="207.00" id="t207" type="noivc-noreplan">
        <route edges="A2-A3 A3-B3 B3-C3 C3-D3 D3-E3" />
    </vehicle>
    <vehicle depart="208.00" id="t208" type="fromFleet">
        <route edges="F4-E4 E4-E5" />
    </vehicle>
    <vehicle depart="209.00" id="t209" type="ivc-noreplan">
        <route edges="E1-E2 E2-E3 E3-E4 E4-E5 E5-F5 F5-F4" />
    </vehicle>
    <vehicle depart="210.00" id="t210" type="noivc-noreplan">
        <route edges="A4-A5 A5-B5 B5-C5 C5-D5 D5-E5 E5-F5 F5-F4" />
    </vehicle>
    <vehicle depart="211.00" id="t211" type="noivc-noreplan">
        <route edges="D4-C4 C4-B4 B4-B3 B3-C3" />
    </vehicle>
    <vehicle depart="212.00" id="t212" type="fromFleet">